304

N	0.074	3.305	12.661
H1	0.795	2.584	12.859
H2	0.121	4.053	13.384
CA	0.32	3.899	11.317
HA2	-0.591	4.349	10.949
C	0.777	2.805	10.35
H	-0.176	3.654	8.826
CA	0.793	1.87	8.105
O	1.476	1.883	10.729
N	0.386	2.901	9.105
HA	1.449	1.166	8.566
C	1.508	2.542	6.931
H	0.045	3.868	6.703
CA	1.555	4.267	5.218
O	2.588	2.138	6.541
N	0.915	3.563	6.367
HA	1.929	3.542	4.511
C	2.716	5.117	5.736
H	1.522	6.099	6.981
CA	3.519	6.869	7.219
O	3.846	4.967	5.311
N	2.441	6.005	6.656
HA	3.979	7.432	6.422
C	4.582	6.002	7.909
H	3.359	4.434	8.044
CA	5.246	3.879	8.916
O	5.69	6.446	8.145
N	4.256	4.772	8.238
HA	5.513	4.301	9.872
C	6.505	3.741	8.052
H	5.44	3.566	6.379
CA	7.532	3.446	5.868
O	7.614	3.772	8.553
N	6.342	3.588	6.76
HA	8.374	3.943	6.321
C	7.243	4.09	4.505
H	6.395	5.68	5.35
CA	6.341	5.945	3.21
O	7.57	3.543	3.469
N	6.642	5.255	4.502
HA	5.745	5.295	2.586
C	7.655	6.275	2.499
H	8.487	6.886	4.196
CA	9.939	7.103	2.621
O	7.787	6.097	1.303
N	8.625	6.754	3.234
HA	9.807	7.287	1.564
C	10.921	5.946	2.821
H	9.456	4.604	2.815
CA	11.317	3.561	3.085
O	12.118	6.147	2.911
N	10.422	4.738	2.892
HA	12.203	3.677	2.477
C	10.576	2.29	2.668
H	12.062	1.134	3.295
CA	10.514	-0.139	2.492
O	9.476	2.347	2.151
N	11.173	1.149	2.882
HA	9.525	0.074	2.109
C	10.388	-1.012	3.745
H	8.491	-0.477	4.009
CA	9.033	-1.821	5.604
O	11.333	-1.652	4.163
N	9.23	-1.017	4.359
HA	9.951	-1.813	6.174
C	8.681	-3.276	5.253
H	6.733	-2.881	5.078
CA	7.033	-4.981	4.694
O	9.548	-4.127	5.2
N	7.42	-3.576	5.025
HA	7.622	-5.327	3.857
C	5.547	-5.042	4.328
H	5.846	-6.607	3.145
CA	3.749	-6.119	3.083
O	4.748	-4.248	4.789
N	5.178	-5.984	3.499
HA	3.399	-5.169	2.714
C	2.89	-6.543	4.279
H	4.451	-7.283	5.273
CA	2.685	-7.572	6.478
O	1.689	-6.352	4.279
N	3.483	-7.128	5.294
HA	1.976	-8.319	6.145
C	1.89	-6.379	7.054
H	3.174	-5.049	6.309
CA	1.617	-3.98	7.35
O	0.865	-6.559	7.686
N	2.351	-5.171	6.829
HA	1.258	-4.187	8.349
C	0.429	-3.681	6.435
H	1.558	-3.84	4.807
CA	-0.456	-3.386	4.188
O	-0.679	-3.473	6.892
N	0.654	-3.665	5.145
HA	-0.932	-2.454	4.453
C	-1.495	-4.517	4.239
H	-0.258	-5.747	5.204
CA	-2.121	-6.78	4.903
O	-2.599	-4.368	3.754
N	-1.152	-5.645	4.821
HA	-2.396	-7.09	3.905
C	-3.382	-6.349	5.663
H	-2.467	-4.791	6.503
CA	-4.505	-4.82	7.191
O	-4.417	-6.98	5.558
N	-3.309	-5.283	6.427
HA	-5.159	-5.658	7.376
C	-5.259	-3.751	6.388
H	-4.645	-4.494	4.648
CA	-5.891	-2.788	4.241
O	-5.915	-2.895	6.951
N	-5.175	-3.797	5.078
HA	-6.361	-2.057	4.883
C	-6.961	-3.475	3.382
H	-6.975	-5.105	4.529
CA	-8.4	-5.388	2.941
O	-7.425	-2.92	2.405
N	-7.358	-4.675	3.737
HA	-8.579	-4.852	2.019
C	-9.698	-5.458	3.749
H	-9.293	-3.75	4.682
CA	-11.18	-4.484	5.416
O	-10.475	-6.385	3.612
N	-9.935	-4.484	4.592
HA	-11.301	-5.449	5.885
C	-12.386	-4.199	4.518
OXT	-13.466	-4.014	5.054
O	-12.208	-4.169	3.312
N	6.204	-3.216	1.503
H1	7.064	-2.856	1.045
H2	5.555	-2.426	1.695
CA	5.535	-4.2	0.603
HA	4.675	-4.617	1.108
C	6.517	-5.328	0.262
H	7.609	-4.148	-0.901
CA	8.515	-6.109	-0.895
O	6.385	-6.438	0.742
N	7.513	-5.051	-0.545
HA	8.816	-6.6	0.017
C	9.762	-5.478	-1.538
H	8.72	-4.029	-2.423
CA	10.798	-3.749	-2.907
O	10.866	-5.95	-1.337
N	9.609	-4.408	-2.285
HA	11.617	-3.769	-2.202
C	10.463	-2.291	-3.237
H	8.663	-2.772	-3.93
CA	8.901	-0.641	-4.098
O	11.262	-1.401	-3.012
N	9.29	-2.04	-3.761
HA	9.729	-0.141	-4.579
C	8.539	0.1	-2.809
H	8.81	1.873	-3.664
CA	8.226	2.189	-1.616
O	8.242	-0.51	-1.799
N	8.564	1.407	-2.838
HA	8.598	1.667	-0.747
C	6.707	2.331	-1.504
H	6.852	3.42	0.153
CA	4.763	3.172	-0.313
O	5.969	1.803	-2.314
N	6.236	3.019	-0.495
HA	4.252	2.757	-1.17
C	4.393	4.652	-0.168
H	5.327	5.132	-1.856
CA	4.467	6.923	-1.021
O	3.732	5.045	0.776
N	4.804	5.472	-1.101
HA	3.659	7.056	-0.322
C	4.012	7.41	-2.398
H	2.423	8.31	-1.618
CA	2.386	8.614	-3.749
O	4.639	7.134	-3.404
N	2.912	8.118	-2.445
HA2	1.888	9.563	-3.602
C	1.395	7.587	-4.297
H	2.118	7.749	-6.142
CA	0.524	6.296	-6.161
O	0.592	7.043	-3.563
N	1.454	7.306	-5.574
HA	-0.431	6.351	-5.656
C	1.105	4.882	-5.993
H	2.681	5.53	-4.951
CA	2.834	3.394	-5.131
O	0.532	3.917	-6.462
N	2.233	4.746	-5.327
HA	2.783	2.838	-6.055
C	2.058	2.652	-4.047
H	1.72	4.337	-3.05
CA	0.803	2.719	-1.968
O	1.896	1.448	-4.099
N	1.576	3.367	-3.064
HA	1.382	1.904	-1.56
C	-0.505	2.174	-2.539
H	-0.952	3.916	-3.384
CA	-2.548	2.531	-3.831
O	-0.837	1.025	-2.342
N	-1.248	2.992	-3.243
HA	-3.232	2.286	-3.031
C	-2.323	1.287	-4.704
H	-0.795	2.136	-5.65
CA	-1.066	0.154	-6.459
O	-3.026	0.297	-4.584
N	-1.346	1.33	-5.577
HA	-1.94	-0.066	-7.052
C	-0.715	-1.06	-5.596
H	0.054	0.092	-4.172
CA	0.236	-1.958	-3.546
O	-0.967	-2.193	-5.967
N	-0.136	-0.83	-4.446
HA	0.756	-2.714	-4.115
C	-1.03	-2.561	-2.935
H	-1.964	-0.804	-2.936
CA	-3.305	-2.285	-2.126
O	-1.097	-3.749	-2.679
N	-2.039	-1.753	-2.71
HA	-3.084	-2.82	-1.213
C	-3.937	-3.241	-3.136
H	-3.492	-2.025	-4.648
CA	-4.491	-3.764	-5.446
O	-4.432	-4.295	-2.784
N	-3.909	-2.879	-4.395
HA	-5.526	-3.971	-5.215
C	-3.7	-5.073	-5.483
H	-1.989	-4.117	-5.156
CA	-1.563	-6.223	-5.314
O	-4.257	-6.141	-5.662
N	-2.407	-4.992	-5.304
HA	-1.723	-6.762	-6.236
C	-1.952	-7.112	-4.126
H	-2.516	-5.541	-3.044
CA	-2.825	-7.313	-1.861
O	-1.824	-8.32	-4.177
N	-2.426	-6.517	-3.058
HA	-2.049	-8.029	-1.631
C	-4.135	-8.056	-2.145
H	-5.181	-6.364	-2.157
CA	-6.536	-7.997	-2.528
O	-4.157	-9.267	-2.26
N	-5.226	-7.338	-2.256
HA	-6.5	-9.021	-2.183
C	-6.807	-7.981	-4.035
H	-7.308	-6.056	-4.006
CA	-7.472	-6.768	-6.035
O	-6.656	-8.983	-4.708
N	-7.199	-6.85	-4.569
HA2	-6.814	-6.034	-6.479
C	-8.93	-6.363	-6.296
H	-9.479	-6.686	-4.405
CA	-11.205	-6.02	-5.504
O	-9.285	-6.016	-7.407
N	-9.778	-6.403	-5.293
HA	-11.507	-6.293	-6.505
C	-11.361	-4.511	-5.317
H	-12.757	-4.41	-6.73
CA	-12.445	-2.429	-5.945
O	-10.701	-3.908	-4.493
N	-12.236	-3.9	-6.076
HA	-11.489	-1.937	-5.858
C	-13.277	-2.151	-4.693
H	-12.466	-0.35	-4.468
CA	-13.881	-0.656	-2.87
O	-14.06	-2.977	-4.264
N	-13.108	-0.996	-4.103
HA2	-13.618	0.339	-2.543
C	-13.552	-1.664	-1.763
H	-11.77	-2.063	-2.551
CA	-11.998	-3.258	-0.776
O	-14.344	-1.893	-0.867
N	-12.39	-2.266	-1.819
HA2	-12.853	-3.48	-0.152
C	-10.872	-2.677	0.083
H	-10.218	-1.544	-1.414
CA	-8.956	-1.192	0.292
O	-10.724	-3.022	1.241
N	-10.078	-1.801	-0.479
HA	-9.068	-1.431	1.339
C	-8.975	0.327	0.111
H	-7.265	0.535	1.102
CA	-7.931	2.493	0.492
O	-9.881	0.877	-0.485
N	-7.981	1.006	0.625
HA	-8.823	2.919	0.925
C	-7.858	2.872	-0.993
H	-9.723	3.556	-0.967
CA	-8.943	3.816	-2.955
O	-6.849	2.683	-1.646
N	-8.927	3.412	-1.52
HA	-7.969	3.644	-3.388
C	-9.298	5.308	-3.056
HD2	-6.533	5.214	-3.679
CA	-8.497	7.638	-3.063
O	-10.458	5.645	-3.183
N	-8.297	6.17	-2.989
HA	-9.147	7.965	-2.267
C	-9.09	8.024	-4.423
H	-10.947	7.73	-3.779
CA	-11.049	8.356	-5.84
O	-8.374	8.348	-5.351
N	-10.395	7.991	-4.544
HA	-10.846	9.394	-6.063
C	-12.561	8.151	-5.719
OXT	-12.959	7.165	-5.122
O	-13.294	8.984	-6.226