68

N	3.751	6.807	-2.135
H1	4.719	6.589	-1.826
H2	3.159	7.015	-1.304
CA	3.184	5.636	-2.863
HA	2.577	5.994	-3.68
C	2.326	4.815	-1.888
H	3.061	5.813	-0.343
CA	1.666	4.36	0.411
O	1.576	3.935	-2.272
N	2.445	5.104	-0.62
HA	2.078	3.371	0.524
C	0.195	4.252	0.006
H	0.264	5.932	-1.047
CA	-1.736	5.121	-1.159
O	-0.49	3.323	0.381
N	-0.302	5.19	-0.752
HA	-2.332	4.85	-0.302
C	-1.913	4.023	-2.213
H	-0.08	4.272	-2.931
CA	-1.045	2.688	-4.027
O	-2.945	3.384	-2.285
N	-0.915	3.771	-3.012
HA	-1.961	2.825	-4.586
C	-1.087	1.346	-3.296
H	0.532	1.8	-2.234
CA	-0.148	-0.16	-1.65
O	-1.958	0.526	-3.52
N	-0.156	1.121	-2.407
HA	-0.153	-0.987	-2.339
C	-1.398	-0.223	-0.775
H	-1.249	1.697	-0.288
CA	-2.982	0.878	0.686
O	-2.033	-1.252	-0.652
N	-1.766	0.874	-0.17
HA	-2.812	0.275	1.566
C	-4.151	0.317	-0.122
H	-3.477	1.169	-1.786
CA	-5.287	0.101	-2.252
O	-5.008	-0.372	0.393
N	-4.184	0.611	-1.394
HA	-6.235	0.298	-1.778
C	-5.129	-1.405	-2.434
H	-3.16	-1.266	-2.721
CA	-3.736	-3.335	-2.838
O	-6.087	-2.149	-2.355
N	-3.933	-1.87	-2.667
HA	-4.255	-3.679	-3.719
C	-4.298	-4.062	-1.616
H	-3.767	-2.585	-0.398
CA	-4.729	-4.13	0.764
O	-4.824	-5.152	-1.719
N	-4.193	-3.467	-0.46
HA2	-4.889	-3.389	1.536
C	-3.731	-5.173	1.269
H	-2.515	-4.889	-0.278
CA	-1.641	-6.384	1.011
O	-3.92	-5.77	2.311
N	-2.658	-5.39	0.552
HA	-2.132	-7.188	1.544
C	-0.657	-5.68	1.946
H	-1.847	-4.1	2.1
CA	-0.091	-3.725	3.283
O	0.399	-6.192	2.259
N	-0.995	-4.495	2.38
HA	0.617	-4.382	3.77
C	-0.93	-3.011	4.346
OXT	-2.02	-2.576	4.016
O	-0.47	-2.918	5.471