122

N	5.7	-9.286	-9.888
H1	5.914	-8.298	-10.131
H2	4.675	-9.395	-9.746
CA	6.418	-9.657	-8.635
HA	6.685	-10.702	-8.649
C	5.549	-9.342	-7.415
H	6.775	-10.316	-6.194
CA	5.144	-9.52	-5.032
O	4.527	-8.693	-7.519
N	5.948	-9.795	-6.258
HA	4.158	-9.948	-5.124
C	5.053	-8.012	-4.786
H	7.016	-7.783	-4.949
CA	6.145	-5.865	-4.558
O	3.984	-7.468	-4.591
N	6.167	-7.331	-4.792
HA	5.76	-5.653	-3.581
C	5.305	-5.176	-5.632
H	6.098	-6.289	-7.056
CA	4.687	-4.96	-7.957
O	4.522	-4.29	-5.353
N	5.465	-5.58	-6.859
HA	4.975	-3.938	-8.077
C	3.191	-5.075	-7.668
H	3.427	-6.874	-6.872
CA	1.335	-6.356	-6.781
O	2.418	-4.182	-7.957
N	2.781	-6.171	-7.096
HA	0.735	-6.213	-7.666
C	0.906	-5.384	-5.68
H	2.746	-5.269	-4.954
CA	1.472	-4.021	-3.766
O	-0.248	-5.018	-5.577
N	1.826	-4.965	-4.856
HA	0.811	-4.494	-3.066
C	0.829	-2.766	-4.354
H	2.049	-2.787	-5.904
CA	0.748	-1.11	-6.108
O	-0.085	-2.201	-3.792
N	1.311	-2.325	-5.479
HA	0.736	-0.313	-5.401
C	-0.659	-1.383	-6.651
H	-0.241	-3.274	-7.021
CA	-2.256	-2.925	-7.61
O	-1.499	-0.506	-6.696
N	-0.919	-2.592	-7.068
HA	-2.682	-2.054	-8.044
C	-3.154	-3.44	-6.502
H	-2.285	-2.236	-5.237
CA	-3.798	-3.34	-4.186
O	-4	-4.29	-6.699
N	-2.969	-2.916	-5.342
HA	-4.816	-3.441	-4.493
C	-3.689	-2.329	-3.041
H	-1.789	-1.951	-3.432
CA	-2.378	-0.763	-1.753
O	-4.639	-2.09	-2.322
N	-2.541	-1.742	-2.857
HA	-2.804	-1.16	-0.856
C	-3.047	0.563	-2.1
H	-4.534	-0.353	-3.007
CA	-4.886	1.751	-3.102
O	-2.571	1.625	-1.749
N	-4.163	0.506	-2.76
HA	-4.212	2.47	-3.52
C	-5.537	2.281	-1.831
H	-6.015	0.448	-1.281
CA	-6.693	1.779	0.234
O	-5.551	3.465	-1.56
N	-6.057	1.387	-1.04
HA	-7.231	2.695	0.115
C	-5.615	1.905	1.313
H	-6.86	2.778	2.59
CA	-4.925	2.599	3.529
O	-4.487	1.499	1.115
N	-5.944	2.457	2.447
HA	-5.211	3.379	4.216
C	-3.548	2.893	2.928
H	-4.241	4.437	1.899
CA	-2.146	4.24	1.483
O	-2.584	2.205	3.198
N	-3.453	3.904	2.109
HA	-1.793	3.41	0.902
C	-1.121	4.628	2.552
H	-1.227	2.843	3.414
CA	0.181	4.046	4.511
O	-0.619	5.734	2.571
N	-0.808	3.728	3.444
HA	0.239	3.238	5.222
C	-0.202	5.349	5.213
H	-1.232	4.374	6.597
CA	-1.356	6.486	7.013
O	0.17	6.427	4.793
N	-0.944	5.255	6.279
HA	-2.122	7.012	6.466
C	-0.144	7.392	7.246
H	-1.257	8.782	8.122
CA	0.788	9.459	8.098
O	0.969	7.06	6.89
N	-0.352	8.534	7.842
HA	1.445	9.493	7.244
C	1.554	9.018	9.346
H	1.837	7.198	8.627
CA	2.749	7.297	10.551
O	1.747	9.781	10.271
N	1.996	7.791	9.377
HA	3.192	8.118	11.071
C	3.819	6.299	10.104
H	5.199	7.721	9.971
CA	6.097	5.841	9.421
O	3.564	5.119	9.974
N	5.014	6.764	9.863
HA2	5.761	5.277	8.563
C	6.447	4.881	10.559
H	4.58	4.213	10.673
CA	5.768	3.187	12.153
O	7.578	4.811	10.999
N	5.486	4.141	11.041
HA	6.478	3.616	12.842
C	6.303	1.865	11.593
OXT	6.26	1.695	10.386
O	6.745	1.046	12.382