60

N	11.248	1.29	8.628
H1	11.807	1.289	9.469
H2	10.346	1.702	8.824
CA	11.92	2.065	7.6
HA2	12.056	3.083	7.962
C	11.136	2.111	6.305
H	11.405	0.121	6.047
CA	10.264	0.872	4.398
O	10.666	3.171	5.894
N	10.995	0.958	5.657
HA	10.135	1.88	4.002
C	8.885	0.253	4.611
H	8.069	1.608	3.348
CA	6.514	0.32	4.062
O	8.735	-0.714	5.36
N	7.881	0.817	3.947
HA	6.416	-0.209	5.011
C	6.193	-0.651	2.93
H	6.589	-2.22	4.143
CA	6.025	-2.973	2.22
O	5.85	-0.236	1.822
N	6.304	-1.943	3.215
HA	6.682	-2.815	1.365
C	4.58	-2.89	1.742
H	3.922	-3.294	3.614
CA	2.225	-3.042	2.335
O	4.32	-2.645	0.565
N	3.643	-3.096	2.663
HA	2.09	-2.342	1.51
C	1.405	-2.549	3.523
H	1.206	-0.735	2.649
CA	0.181	-0.7	4.529
O	1.166	-3.291	4.476
N	0.976	-1.293	3.459
HA	0.681	-0.895	5.478
C	-1.211	-1.317	4.583
H	-1.685	-0.453	2.811
CA	-3.364	-1.575	3.513
O	-1.552	-2.025	5.531
N	-2.016	-1.042	3.562
HA2	-3.312	-2.659	3.409
C	-4.172	-1.008	2.361
H	-4.022	0.851	3.146
CA	-5.155	0.967	1.334
O	-4.591	-1.744	1.466
N	-4.392	0.302	2.383
HA	-5.401	0.232	0.567
C	-4.338	2.083	0.691
H	-2.662	0.958	0.837
CA	-2.149	2.83	-0.067
O	-4.872	3.137	0.346
N	-3.04	1.844	0.534
HA	-2.697	3.764	-0.188
C	-1.669	2.366	-1.438
H	-1.995	4.216	-2.194
CA	-1.24	2.965	-3.759
O	-1.298	1.207	-1.617
N	-1.678	3.281	-2.404
HA	-0.99	1.905	-3.804
C	-0.001	3.773	-4.131