164

N	18.083	-27.697	-7.098
H1	17.188	-28.215	-7.207
H2	18.536	-27.97	-6.202
CA	17.812	-26.23	-7.091
HA	17.146	-25.965	-7.897
C	19.124	-25.45	-7.201
H	20.044	-26.674	-5.937
CA	21.448	-25.164	-6.565
O	19.215	-24.467	-7.911
N	20.141	-25.88	-6.503
HA	21.44	-24.433	-7.358
C	22.589	-26.165	-6.772
H	21.952	-26.627	-8.596
CA	23.719	-27.788	-8.179
O	23.421	-26.361	-5.908
N	22.633	-26.8	-7.913
HA	23.952	-28.342	-7.284
C	24.966	-27.075	-8.708
H	26.051	-28.735	-8.604
CA	27.305	-27.148	-9.352
O	24.941	-25.893	-8.995
N	26.055	-27.784	-8.841
HA	27.461	-26.199	-8.879
C	27.231	-26.98	-10.868
H	25.978	-28.494	-11.021
CA	26.335	-27.718	-12.994
O	27.859	-26.111	-11.442
N	26.467	-27.808	-11.513
HA	27.29	-27.697	-13.452
C	25.528	-26.491	-13.377
H	24.176	-26.997	-12.08
CA	23.531	-25.18	-13.018
O	25.905	-25.706	-14.225
N	24.42	-26.339	-12.743
HA	23.178	-25.202	-14.036
C	24.273	-23.881	-12.729
H	24.931	-23.794	-14.586
CA	25.686	-22.088	-13.516
O	24.259	-23.373	-11.625
N	24.927	-23.35	-13.716
HA	26.318	-22.185	-12.66
C	24.747	-20.901	-13.311
H	23.138	-21.953	-13.819
CA	22.526	-19.954	-13.284
O	25.17	-19.834	-12.91
N	23.473	-21.079	-13.531
HA	22.775	-19.102	-13.898
C	22.59	-19.589	-11.795
H	23.255	-21.405	-11.338
CA	23.127	-20.277	-9.514
O	22.284	-18.483	-11.394
N	23.007	-20.527	-10.979
HA	22.408	-19.544	-9.197
C	24.55	-19.815	-9.173
H	25.224	-20.408	-10.933
CA	26.88	-19.563	-9.834
O	24.802	-19.276	-8.113
N	25.475	-20.006	-10.077
HA	27.262	-19.949	-8.901
C	26.95	-18.038	-9.865
H	25.477	-17.919	-11.203
CA	26.124	-15.922	-10.748
O	27.748	-17.431	-9.178
N	26.119	-17.413	-10.661
HA	26.977	-15.567	-11.309
C	26.091	-15.303	-9.352
H	24.76	-16.637	-8.723
CA	25.241	-15.323	-7.086
O	26.795	-14.354	-9.064
N	25.296	-15.855	-8.474
HA	24.999	-14.271	-7.082
C	26.601	-15.539	-6.426
H	26.941	-17.19	-7.497
CA	28.632	-16.852	-6.233
O	27.028	-14.77	-5.586
N	27.29	-16.579	-6.815
HA	28.631	-16.633	-5.181
C	29.671	-15.989	-6.952
H	28.726	-16.162	-8.695
CA	30.478	-14.934	-8.977
O	30.614	-15.511	-6.354
N	29.499	-15.777	-8.232
HA	31.467	-15.342	-8.868
C	30.447	-13.519	-8.407
H	28.515	-13.663	-7.95
CA	29.216	-11.731	-7.328
O	31.447	-12.828	-8.379
N	29.31	-13.09	-7.926
HA	29.568	-10.981	-8.019
C	29.999	-11.718	-6.018
H	29.65	-13.649	-5.763
CA	30.806	-12.965	-4.086
O	30.497	-10.7	-5.58
N	30.087	-12.858	-5.383
HA	30.375	-12.274	-3.38
C	32.303	-12.731	-4.29
H	32.211	-13.523	-6.101
CA	34.241	-12.931	-5.749
O	32.993	-12.211	-3.435
N	32.798	-13.115	-5.436
HA	34.847	-13.087	-4.871
C	34.468	-11.538	-6.327
H	34.69	-10.796	-4.528
CA	34.911	-9.189	-5.946
O	34.443	-11.333	-7.525
N	34.683	-10.588	-5.477
HA	34.315	-8.983	-6.821
C	36.396	-8.956	-6.243
H	36.602	-10.765	-7.042
CA	38.498	-9.767	-7.144
O	36.937	-7.905	-5.959
N	37.056	-9.925	-6.819
HA	39.078	-9.628	-6.24
C	38.697	-8.598	-8.091
H	37.218	-9.203	-9.26
CA	38.059	-7.398	-10.082
O	39.57	-7.775	-7.899
N	37.905	-8.518	-9.119
HA	38.933	-7.566	-10.694
C	38.135	-6.069	-9.317
H	37.297	-6.914	-7.723
CA	37.72	-4.856	-7.246
O	38.633	-5.075	-9.806
N	37.664	-6.079	-8.095
HA	37.467	-3.971	-7.809
C	39.121	-4.728	-6.649
H	39.221	-6.687	-6.373
CA	41.05	-5.833	-5.689
O	39.676	-3.653	-6.543
N	39.691	-5.841	-6.269
HA	41.139	-5.065	-4.96
C	42.085	-5.632	-6.798
H	40.887	-6.464	-8.142
CA	42.709	-5.876	-9.125
O	43.155	-5.099	-6.578
N	41.761	-6.048	-7.991
HA	43.69	-6.215	-8.848
C	42.748	-4.412	-9.566
H	41.015	-4.022	-8.677
CA	41.725	-2.211	-9.605
O	43.669	-3.977	-10.225
N	41.749	-3.649	-9.208
HA	41.785	-2.115	-10.677
C	42.873	-1.453	-8.931
H	42.979	-2.79	-7.466
CA	44.484	-1.287	-7.115
O	43.322	-0.429	-9.408
N	43.356	-1.96	-7.826
HA	44.301	-0.228	-7.033
C	45.795	-1.552	-7.863
H	45.099	-3.199	-8.725
CA	47.117	-2.898	-9.367
O	46.749	-0.81	-7.73
N	45.86	-2.6	-8.635
HA	47.866	-2.197	-9.101
C	46.901	-2.889	-10.881
H	44.939	-2.874	-10.666
CA	45.384	-2.873	-12.766
O	47.84	-2.897	-11.652
N	45.674	-2.877	-11.307
HA	46.01	-3.587	-13.277
C	45.588	-1.467	-13.34
OXT	45.189	-0.518	-12.687
O	46.141	-1.365	-14.423