138

N	-4.277	-14.984	3.856
H1	-4.46	-14.665	4.788
H2	-4.997	-14.981	3.148
CA	-2.893	-15.125	3.436
HA2	-2.382	-15.841	4.099
C	-2.187	-13.793	3.457
H	-0.326	-14.663	3.301
CA	-0.1	-12.532	3.363
O	-2.847	-12.768	3.543
N	-0.837	-13.795	3.367
HA	-0.441	-11.947	4.234
C	-0.379	-11.732	2.112
H	-1.066	-13.33	1.002
CA	-1.029	-11.576	-0.233
O	-0.154	-10.534	2.15
N	-0.844	-12.345	0.997
HA	-0.074	-11.065	-0.434
C	-2.129	-10.558	-0.051
H	-3.438	-11.901	0.808
CA	-4.345	-9.955	0.759
O	-1.936	-9.415	-0.431
N	-3.289	-10.941	0.529
HA	-4.646	-9.517	-0.208
C	-3.815	-8.857	1.652
H	-2.887	-10.184	2.925
CA	-2.64	-8.192	3.681
O	-4.05	-7.693	1.365
N	-3.105	-9.215	2.744
HA	-3.508	-7.594	4.007
C	-1.675	-7.282	2.958
H	-0.661	-8.846	2.083
CA	0.283	-7.001	1.542
O	-1.79	-6.074	3.087
N	-0.708	-7.844	2.201
HA	0.755	-6.334	2.283
C	-0.428	-6.157	0.511
H	-1.206	-7.799	-0.451
CA	-1.594	-6.055	-1.631
O	-0.381	-4.941	0.604
N	-1.075	-6.798	-0.486
HA	-0.721	-5.592	-2.115
C	-2.547	-4.975	-1.171
H	-3.63	-6.257	0.028
CA	-4.504	-4.299	0.113
O	-2.39	-3.837	-1.584
N	-3.541	-5.312	-0.317
HA	-4.891	-3.777	-0.779
C	-3.837	-3.308	1.038
H	-2.945	-4.779	2.171
CA	-2.511	-2.867	3.034
O	-3.995	-2.114	0.835
N	-3.098	-3.787	2.064
HA2	-3.321	-2.374	3.595
C	-1.653	-1.842	2.338
H	-0.365	-3.263	1.575
CA	0.279	-1.308	0.966
O	-1.953	-0.661	2.425
N	-0.581	-2.278	1.639
HA	0.581	-0.575	1.734
C	-0.519	-0.586	-0.092
H	-1.71	-2.199	-0.572
CA	-2.239	-0.535	-1.817
O	-0.254	0.586	-0.297
N	-1.491	-1.234	-0.774
HA2	-1.555	-0.285	-2.644
C	-2.891	0.715	-1.279
H	-3.536	-0.223	0.439
CA	-4.153	1.83	0.482
O	-2.852	1.74	-1.94
N	-3.511	0.644	-0.08
HA	-4.738	2.338	-0.304
C	-3.12	2.775	1.052
H	-2.097	1.268	2.016
CA	-1.253	3.158	2.573
O	-3.178	3.961	0.771
N	-2.176	2.265	1.875
HA	-1.841	3.934	3.089
C	-0.342	3.856	1.592
H	0.033	2.162	0.48
CA	1.179	3.795	-0.312
O	-0.152	5.053	1.737
N	0.239	3.143	0.601
HA	2.049	4.075	0.306
C	0.568	5.054	-0.877
H	-1.328	4.256	-1.061
CA	-1.331	6.294	-1.735
O	1.283	6.03	-1.024
N	-0.747	5.071	-1.193
HA	-0.712	6.638	-2.582
C	-1.299	7.345	-0.651
H	-2.291	6.174	0.726
CA	-1.902	8.103	1.579
O	-0.745	8.408	-0.878
N	-1.876	7.076	0.541
HA2	-2.541	8.933	1.237
C	-0.524	8.621	1.919
H	0.372	6.79	1.636
CA	1.847	8.175	2.338
O	-0.395	9.803	2.198
N	0.511	7.749	1.923
HA	1.765	8.939	3.13
C	2.551	8.79	1.149
H	2.415	7.081	0.01
CA	3.543	8.532	-1.064
O	2.924	9.951	1.212
N	2.758	8.019	0.056
HA	4.546	8.78	-0.675
C	2.917	9.771	-1.655
H	0.974	9.146	-1.405
CA	0.958	11.069	-2.332
O	3.673	10.638	-2.061
N	1.57	9.885	-1.723
HA	1.008	10.946	-3.427
C	1.679	12.339	-1.944
H	1.826	11.828	0.051
CA	2.696	13.767	-0.264
O	1.931	13.16	-2.811
N	2.025	12.527	-0.65
HA	2.005	14.597	-0.493
C	3.964	13.922	-1.075
H	4.602	12.008	-0.662
CA	6.034	12.952	-1.945
O	4.18	14.985	-1.635
N	4.808	12.866	-1.152
HA	6.486	13.949	-1.807
C	5.676	12.799	-3.409
H	5.105	10.832	-3.233
CA	4.898	11.4	-5.267
O	5.796	13.767	-4.145
N	5.238	11.599	-3.859
HA	5.591	11.966	-5.913
C	3.488	11.893	-5.509
H	4.019	13.876	-5.32
CA	1.937	13.751	-5.813
O	2.593	11.084	-5.698
N	3.269	13.229	-5.517
HA	1.171	13.188	-5.253
C	1.671	13.539	-7.28