110

N	2.205	0.999	-0.239
H1	2.508	1.896	0.197
H2	2.388	0.222	0.434
CA	2.944	0.769	-1.502
HA	2.654	-0.206	-1.877
C	4.452	0.762	-1.269
H	4.213	1.609	0.528
CA	6.275	1.297	0.214
O	5.22	0.311	-2.12
N	4.869	1.257	-0.115
HA2	6.658	0.288	0.253
C	6.501	1.964	1.547
H	7.797	3.251	0.744
CA	7.603	3.702	2.802
O	5.888	1.582	2.545
N	7.349	2.974	1.573
HA	7.304	3.063	3.622
C	6.751	4.964	2.841
H	7.126	5.182	4.793
CA	5.832	6.761	4.202
O	6.2	5.385	1.824
N	6.642	5.562	4.016
HA	4.984	6.701	3.536
C	6.64	8.006	3.851
H	8.202	6.861	3.384
CA	8.725	8.848	2.894
O	6.171	9.13	4.014
N	7.867	7.781	3.391
HA2	9.551	8.405	2.359
C	9.283	9.745	3.983
H	7.441	10.258	4.561
CA	8.813	11.239	5.847
O	10.5	9.861	4.129
N	8.401	10.373	4.748
HA	9.86	11.464	5.708
C	8.642	10.537	7.187
H	8.225	8.813	6.271
CA	7.989	8.534	8.356
O	8.84	11.136	8.242
N	8.278	9.263	7.138
HA2	7.917	7.479	8.129
C	6.69	8.998	8.972
H	5.751	8.607	7.268
CA	4.325	9.44	8.578
O	6.645	9.391	10.133
N	5.638	8.963	8.17
HA	4.434	10.456	8.92
C	3.756	8.594	9.717
H	3.195	7.173	8.431
CA	2.768	6.468	10.384
O	3.77	9.007	10.875
N	3.26	7.41	9.38
HA	2.041	6.979	11
C	3.924	5.99	11.259
H	5.17	6.369	9.763
CA	6.341	5.592	11.333
O	3.748	5.635	12.422
N	5.113	6.026	10.677
HA	6.101	4.772	11.994
C	6.931	6.75	12.153
H	5.095	7.411	12.548
CA	6.425	8.891	13.266
O	8.142	6.849	12.34
N	6.047	7.625	12.628
HA	6.889	9.506	12.506
C	7.412	8.735	14.426
H	6.999	6.791	14.658
CA	8.52	7.313	16.042
O	8.042	9.71	14.827
N	7.552	7.536	14.973
HA	8.398	8.106	16.765
C	9.946	7.371	15.491
H	9.322	6.594	13.758
CA	11.392	6.997	13.558
O	10.876	7.803	16.171
N	10.103	6.944	14.243
HA	12.172	6.947	14.307
C	11.525	8.317	12.787
H	9.607	8.715	13.147
CA	10.34	10.303	11.948
O	12.602	8.679	12.315
N	10.412	9.041	12.694
HA	10.453	10.08	10.898
C	11.451	11.261	12.38
H	11.256	10.683	14.279
CA	12.673	12.254	14.242
O	12.07	11.924	11.548
N	11.72	11.301	13.678
HA	12.387	13.239	13.904
C	14.109	11.983	13.792
H	13.568	10.283	12.884
CA	15.656	10.528	12.617
O	15.01	12.769	14.084
N	14.324	10.878	13.089
HA	16.335	10.595	13.454
C	16.101	11.508	11.531
H	14.244	11.615	10.8
CA	15.523	12.681	9.485
O	17.255	11.931	11.501
N	15.176	11.882	10.655
HA	16.457	13.178	9.698
C	14.469	13.742	9.167
H	13.169	12.95	10.47
CA	12.244	14.595	9.507
O	14.713	14.641	8.36
N	13.307	13.65	9.795
HA2	12.517	15.171	8.635
C	11.992	15.542	10.66
OXT	10.844	16.011	10.814
O	12.943	15.82	11.417