92

N	-12.321	4.065	-0.385
H1	-12.882	4.75	-0.93
H2	-11.754	3.484	-1.037
CA	-13.235	3.186	0.399
HA2	-13.302	3.551	1.412
C	-12.69	1.762	0.404
H	-11.425	2.204	-1.084
CA	-11.133	0.168	-0.569
O	-13.126	0.923	1.193
N	-11.733	1.496	-0.48
HA	-11.068	-0.253	0.422
C	-9.733	0.257	-1.154
H	-10.463	0.165	-3.015
CA	-8.355	0.303	-3.14
O	-8.747	0.335	-0.421
N	-9.647	0.234	-2.478
HA	-7.777	-0.561	-2.85
C	-7.61	1.559	-2.704
H	-9.338	2.511	-2.36
CA	-7.752	3.835	-1.89
O	-6.38	1.586	-2.688
N	-8.362	2.591	-2.338
HA	-7.159	4.245	-2.693
C	-6.847	3.56	-0.697
H	-8.148	2.208	0.002
CA	-6.507	2.281	1.339
O	-5.77	4.144	-0.569
N	-7.287	2.65	0.166
HA	-5.987	3.152	1.71
C	-5.486	1.218	0.955
H	-6.493	0.862	-0.733
CA	-4.817	-0.427	-0.71
O	-4.523	0.965	1.681
N	-5.709	0.607	-0.203
HA	-4.403	-0.981	0.118
C	-3.687	0.206	-1.511
H	-4.975	1.498	-2.333
CA	-3.052	1.905	-3.123
O	-2.532	-0.209	-1.416
N	-4.036	1.215	-2.301
HA	-2.461	1.167	-3.644
C	-2.132	2.752	-2.246
H	-3.551	2.901	-0.838
CA	-1.85	3.972	-0.163
O	-0.993	3.036	-2.619
N	-2.636	3.155	-1.082
HA	-1.292	4.7	-0.731
C	-0.873	3.105	0.627
H	-1.949	1.466	0.224
CA	-0.293	0.879	1.404
O	0.11	3.604	1.174
N	-1.151	1.807	0.68
HA	0.131	1.388	2.257
C	0.846	0.411	0.5
H	-0.416	0.259	-1.04
CA	1.51	-0.309	-1.721
O	1.992	0.295	0.934
N	0.515	0.146	-0.756
HA	2.152	-1.032	-1.245
C	2.359	0.861	-2.209
H	0.949	2.156	-1.637
CA	2.549	3.267	-2.476
O	3.463	0.67	-2.717
N	1.833	2.069	-2.049
HA	2.917	3.117	-3.478
C	3.73	3.542	-1.55
H	4.436	1.694	-1.851
CA	5.758	2.685	-0.525
O	3.857	4.635	-0.998
N	4.59	2.543	-1.386
HA	6.321	3.552	-0.838
C	6.649	1.452	-0.623
H	5.719	0.619	0.94
CA	7.212	-0.734	0.283
O	7.517	1.369	-1.492
N	6.426	0.496	0.273
HA	6.862	-1.365	1.085
C	8.691	-0.431	0.501
H	8.324	1.538	0.53
CA	10.406	1.26	0.811
O	9.515	-1.342	0.581
N	9.022	0.853	0.6
HA	10.799	0.735	1.668
C	10.493	2.761	1.068
H	10.686	2.445	3.034
CA	10.738	4.539	2.71
O	10.43	3.564	0.138
N	10.64	3.132	2.337
HA	11.162	5.093	1.885
C	11.644	4.701	3.928
OXT	12.343	5.699	3.993
O	11.627	3.825	4.776