80

N	-6.86	1.089	5.094
H1	-7.848	1.257	5.376
H2	-6.405	2.005	4.906
CA	-6.815	0.237	3.879
HA	-5.959	-0.419	3.949
C	-6.678	1.107	2.624
H	-5.157	-0.031	1.985
CA	-5.448	1.472	0.521
O	-7.433	2.071	2.447
N	-5.71	0.747	1.768
HA	-6.235	2.2	0.396
C	-5.474	0.519	-0.676
H	-3.787	-0.382	-0.037
CA	-4.33	-1.404	-1.823
O	-6.384	0.595	-1.508
N	-4.467	-0.39	-0.746
HA	-3.377	-1.89	-1.666
C	-4.307	-0.794	-3.23
H	-4.117	1.055	-2.467
CA	-4.112	1.257	-4.58
O	-4.364	-1.525	-4.231
N	-4.184	0.543	-3.298
HA	-4.841	0.811	-5.243
C	-2.72	1.072	-5.19
H	-2.206	-0.008	-3.577
CA	-0.506	0.039	-4.832
O	-2.432	1.562	-6.29
N	-1.88	0.344	-4.438
HA	-0.378	0.338	-5.861
C	-0.243	-1.463	-4.712
H	-0.353	-1.332	-2.717
CA	0.012	-3.363	-3.142
O	-0.088	-2.154	-5.726
N	-0.211	-1.95	-3.457
HA	-0.352	-3.936	-3.971
C	-0.781	-3.755	-1.897
H	-0.073	-2.134	-0.976
CA	-1.332	-3.102	0.422
O	-1.485	-4.772	-1.888
N	-0.65	-2.916	-0.864
HA	-2.132	-3.814	0.278
C	-1.926	-1.776	0.896
H	-2.28	-2.531	2.727
CA	-2.928	-0.51	2.747
O	-1.968	-0.808	0.13
N	-2.36	-1.729	2.171
HA2	-3.648	-0.099	2.055
C	-1.866	0.541	3.037
H	-0.539	-0.528	1.99
CA	0.496	1.163	2.662
O	-2.137	1.54	3.713
N	-0.659	0.289	2.509
HA	0.431	1.651	3.622
C	0.517	2.217	1.556
H	2.382	2.771	2.053
CA	1.758	3.964	0.418
O	-0.466	2.361	0.82
N	1.634	2.94	1.44
HA2	0.837	4.003	-0.142
C	2.902	3.692	-0.539
H	1.676	2.678	-1.761
CA	3.576	2.608	-2.691
O	4.03	4.134	-0.298
N	2.598	2.968	-1.641
HA	3.05	1.997	-3.41
C	4.757	1.777	-2.146
H	3.564	0.961	-0.748
CA	5.481	0.099	-0.472
O	5.878	1.848	-2.671
N	4.478	0.973	-1.1
HA	6.419	0.634	-0.456
C	5.67	-1.195	-1.26
H	7.325	-1.587	-0.207
CA	7.077	-3.19	-1.571
O	4.865	-1.516	-2.142
N	6.741	-1.921	-0.921
HA	6.327	-3.387	-2.322
C	7.065	-4.327	-0.548
OXT	6.415	-5.359	-0.818
O	7.704	-4.172	0.515