140

N	0.898	-13.349	-6.066
H1	0.525	-12.542	-6.604
H2	1.407	-13.99	-6.71
CA	-0.23	-14.083	-5.425
HA	-0.919	-14.418	-6.186
C	-0.956	-13.151	-4.451
H	-2.475	-12.91	-5.717
CA	-2.902	-11.745	-3.953
O	-0.465	-12.879	-3.367
N	-2.118	-12.665	-4.837
HA	-2.574	-11.863	-2.932
C	-4.389	-12.084	-4.052
H	-4.417	-11.594	-5.977
CA	-6.408	-12.216	-5.435
O	-5.007	-12.482	-3.078
N	-4.955	-11.919	-5.226
HA2	-6.543	-12.701	-6.391
C	-7.202	-10.909	-5.409
H	-6.098	-10.151	-6.88
CA	-7.555	-8.659	-6.334
O	-8.124	-10.751	-4.625
N	-6.844	-9.977	-6.269
HA	-7.154	-8.083	-7.156
C	-7.335	-7.884	-5.026
H	-5.567	-8.759	-4.732
CA	-5.899	-7.397	-3.092
O	-8.163	-7.079	-4.623
N	-6.211	-8.116	-4.371
HA	-6.649	-7.642	-2.355
C	-5.902	-5.888	-3.347
H	-5.292	-6.149	-5.226
CA	-5.522	-4.034	-4.904
O	-6.229	-5.106	-2.469
N	-5.544	-5.486	-4.55
HA	-4.95	-3.491	-4.165
C	-6.954	-3.504	-4.934
H	-7.616	-5.169	-5.807
CA	-9.303	-3.858	-5.525
O	-7.22	-2.401	-4.482
N	-7.873	-4.289	-5.46
HA	-9.352	-2.837	-5.878
C	-9.894	-3.922	-4.123
H	-9.105	-5.728	-3.785
CA	-10.157	-5.127	-1.996
O	-10.535	-2.983	-3.678
N	-9.649	-5.008	-3.405
HA	-11.238	-5.126	-1.993
C	-9.634	-3.913	-1.229
H	-7.823	-4.247	-1.96
CA	-7.707	-2.474	-0.766
O	-10.376	-3.197	-0.578
N	-8.354	-3.663	-1.382
HA	-8.298	-2.128	0.07
C	-7.645	-1.378	-1.852
H	-9.541	-1.719	-2.357
CA	-8.868	-0.163	-3.684
O	-6.614	-0.767	-2.072
N	-8.76	-1.171	-2.555
HA	-8.705	-0.676	-4.62
C	-7.837	0.972	-3.562
H	-6.551	-0.095	-4.628
CA	-5.579	1.758	-4.114
O	-8.075	1.998	-2.942
N	-6.687	0.755	-4.155
HA2	-5.502	2.25	-5.073
C	-4.269	1.035	-3.798
H	-3.681	2.488	-2.568
CA	-2.142	0.976	-2.584
O	-4.022	-0.048	-4.304
N	-3.441	1.622	-2.959
HA	-1.739	0.456	-3.441
C	-2.394	-0.02	-1.452
H	-1.969	-1.571	-2.631
CA	-2.476	-2.347	-0.683
O	-2.738	0.369	-0.347
N	-2.237	-1.3	-1.728
HA2	-2.62	-1.869	0.276
C	-1.282	-3.299	-0.6
H	-2.315	-4.546	0.554
CA	-0.359	-5.401	0.278
O	-0.232	-3.046	-1.168
N	-1.452	-4.392	0.116
HA	0.319	-5.341	-0.56
C	-0.967	-6.804	0.344
H	0.446	-7.529	-0.852
CA	-0.864	-9.161	-0.34
O	-1.969	-7.021	1.006
N	-0.358	-7.751	-0.337
HA	-1.607	-9.288	0.438
C	0.305	-10.105	-0.076
H	-0.249	-10.311	1.821
CA	1.527	-11.5	1.52
O	1.099	-10.388	-0.959
N	0.411	-10.577	1.143
HA	1.775	-12.13	0.678
C	1.088	-12.369	2.696
H	2.451	-13.752	2.257
CA	1.37	-14.428	3.995
O	0.18	-12.012	3.429
N	1.729	-13.505	2.872
HA	1.981	-15.314	3.937
C	-0.111	-14.823	3.882
H	-0.079	-14.584	1.903
CA	-2.069	-15.191	2.451
O	-0.764	-15.118	4.872
N	-0.636	-14.826	2.671
HA2	-2.282	-15.188	1.391
C	-2.962	-14.171	3.158
H	-1.635	-12.71	2.853
CA	-3.312	-11.865	3.914
O	-4.042	-14.501	3.62
N	-2.511	-12.934	3.24
HA	-4.34	-12.185	4.001
C	-3.244	-10.586	3.086
H	-5.229	-10.44	3.041
CA	-4.418	-8.772	1.946
O	-2.168	-10.113	2.758
N	-4.387	-10.028	2.753
HA	-3.468	-8.654	1.439
C	-4.643	-7.583	2.884
H	-2.705	-7.157	2.872
CA	-3.68	-5.705	4.118
O	-5.762	-7.297	3.278
N	-3.579	-6.894	3.223
HA	-4.62	-5.723	4.648
C	-3.598	-4.449	3.254
H	-4.861	-3.461	4.429
CA	-4.28	-2.144	2.826
O	-2.894	-4.432	2.258
N	-4.309	-3.409	3.624
HA	-3.967	-2.364	1.816
C	-3.28	-1.184	3.467
H	-3.03	-0.222	1.749
CA	-1.767	0.724	3.217
O	-2.979	-1.29	4.645
N	-2.763	-0.26	2.69
HA	-1.299	0.32	4.102
C	-2.476	2.034	3.566
OXT	-3.14	2.575	2.698
O	-2.343	2.473	4.696