128

N	7.489	-3.46	-3.899
H1	7.053	-4.154	-3.262
H2	8.455	-3.246	-3.572
CA	6.679	-2.209	-3.902
HA	5.868	-2.305	-3.197
C	6.111	-1.974	-5.303
H	4.281	-2.488	-4.725
CA	4.221	-1.978	-6.818
O	6.819	-1.603	-6.218
N	4.835	-2.189	-5.477
HA	4.397	-0.962	-7.138
C	2.714	-2.233	-6.739
H	2.315	-0.293	-6.587
CA	0.455	-1.379	-6.545
O	2.262	-3.36	-6.789
N	1.931	-1.195	-6.621
HA	0.225	-2.433	-6.589
C	-0.198	-0.659	-7.733
H	-1.889	-1.684	-7.538
CA	-2.099	-0.325	-9.195
O	0.401	0.196	-8.353
N	-1.419	-0.995	-8.052
HA	-1.614	-0.601	-10.116
C	-2.014	1.19	-9.012
H	-2.91	1.086	-7.251
CA	-2.453	3.149	-7.664
O	-1.503	1.902	-9.852
N	-2.508	1.683	-7.914
HA	-1.884	3.619	-8.453
C	-1.773	3.397	-6.307
H	-0.284	4.418	-7.137
CA	0.062	4.33	-5.007
O	-2.243	2.949	-5.28
N	-0.659	4.084	-6.296
HA	0.353	3.379	-4.584
C	-0.83	5.076	-3.994
H	-2.153	5.655	-5.366
CA	-2.779	6.417	-3.453
O	-0.525	5.117	-2.818
N	-1.913	5.678	-4.42
HA	-2.158	6.855	-2.686
C	-3.791	5.465	-2.799
H	-3.26	3.941	-3.955
CA	-4.818	3.276	-2.623
O	-4.517	5.846	-1.902
N	-3.849	4.234	-3.232
HA	-5.825	3.579	-2.869
C	-4.645	3.27	-1.101
H	-5.933	1.781	-0.891
CA	-5.213	2.337	1.066
O	-3.893	4.049	-0.549
N	-5.336	2.396	-0.422
HA	-4.648	3.193	1.408
C	-4.462	1.056	1.472
H	-6.035	-0.133	1.158
CA	-4.386	-1.341	1.825
O	-3.299	1.106	1.818
N	-5.1	-0.09	1.437
HA	-3.838	-1.168	2.737
C	-3.414	-1.732	0.714
H	-4.61	-1.001	-0.687
CA	-2.847	-1.782	-1.633
O	-2.352	-2.265	0.963
N	-3.761	-1.451	-0.51
HA	-2.575	-2.825	-1.591
C	-1.601	-0.917	-1.487
H	-2.568	0.31	-0.273
CA	-0.573	1.042	-0.493
O	-0.562	-1.183	-2.059
N	-1.714	0.124	-0.714
HA	-0.035	1.176	-1.417
C	0.367	0.462	0.573
H	-1.138	-0.317	1.602
CA	0.689	-0.782	2.628
O	1.569	0.619	0.503
N	-0.17	-0.201	1.561
HA	1.261	0.002	3.098
C	1.635	-1.812	2.021
H	0.424	-2.116	0.48
CA	2.148	-3.386	0.265
O	2.677	-2.113	2.568
N	1.275	-2.364	0.899
HA	2.378	-4.147	0.996
C	3.452	-2.744	-0.222
H	2.606	-0.957	-0.482
CA	4.692	-0.823	-1.023
O	4.474	-3.396	-0.303
N	3.437	-1.476	-0.547
HA	5.255	-1.526	-1.62
C	5.546	-0.376	0.172
H	4.697	-1.687	1.404
CA	6.178	-0.583	2.509
O	6.374	0.505	0.051
N	5.363	-0.976	1.321
HA	6.123	-1.363	3.256
C	5.648	0.731	3.097
H	3.748	0.178	2.895
CA	3.789	2.14	3.747
O	6.409	1.607	3.456
N	4.353	0.883	3.193
HA	4.567	2.886	3.822
C	3.188	1.879	5.13
H	4.947	1.376	5.877
CA	3.485	1.219	7.449
O	2.003	2.041	5.339
N	3.998	1.488	6.074
HA	4.185	0.588	7.977
C	2.123	0.52	7.373
H	2.934	-1.195	6.78
CA	0.804	-1.455	6.91
O	1.099	1.111	7.648
N	2.102	-0.732	7
HA	0.183	-0.984	6.162
C	0.094	-1.395	8.266
H	-1.584	-0.679	7.465
CA	-1.856	-0.896	9.6
O	0.659	-1.739	9.286
N	-1.135	-0.962	8.296
HA	-1.179	-1.173	10.396
C	-3.032	-1.87	9.589
H	-1.839	-3.413	9.926
CA	-3.871	-4.131	9.79
O	-4.171	-1.486	9.412
N	-2.764	-3.132	9.784
HA	-4.334	-4.145	8.814
C	-4.919	-3.729	10.83
OXT	-4.913	-4.31	11.903
O	-5.708	-2.847	10.535