140

N	-12.936	4.077	0.143
H1	-13.946	4.029	-0.098
H2	-12.432	4.742	-0.48
CA	-12.353	2.727	-0.073
HA	-12.611	2.396	-1.068
C	-12.895	1.725	0.941
H	-12.894	0.28	-0.441
CA	-13.61	-0.563	1.363
O	-13.125	2.063	2.102
N	-13.097	0.489	0.494
HA	-14.252	-0.102	2.099
C	-12.47	-1.276	2.083
H	-13.769	-2.472	3.021
CA	-11.825	-3.015	3.66
O	-11.3	-0.946	1.892
N	-12.82	-2.255	2.911
HA	-11.294	-2.325	4.299
C	-10.826	-3.683	2.72
H	-12.289	-4.13	1.434
CA	-10.478	-4.865	0.621
O	-9.628	-3.73	3.002
N	-11.327	-4.198	1.602
HA	-9.867	-5.583	1.146
C	-9.567	-3.864	-0.083
H	-11.15	-2.817	-0.712
CA	-9.415	-1.843	-1.435
O	-8.343	-3.995	-0.049
N	-10.172	-2.866	-0.721
HA	-8.872	-2.329	-2.232
C	-8.416	-1.154	-0.51
H	-9.787	-1.038	0.941
CA	-8.002	-0.171	1.674
O	-7.263	-0.928	-0.882
N	-8.862	-0.828	0.698
HA	-7.657	0.757	1.241
C	-6.796	-1.044	1.994
H	-8.001	-2.548	2.526
CA	-6.007	-3.219	2.772
O	-5.652	-0.62	1.84
N	-7.065	-2.271	2.432
HA	-5.528	-2.877	3.679
C	-4.966	-3.3	1.662
H	-6.328	-4.053	0.403
CA	-4.505	-3.905	-0.651
O	-3.805	-2.935	1.854
N	-5.392	-3.78	0.495
HA	-3.818	-4.717	-0.455
C	-3.706	-2.622	-0.858
H	-5.224	-1.533	-0.142
CA	-3.663	-0.202	-0.631
O	-2.56	-2.655	-1.306
N	-4.317	-1.494	-0.507
HA	-3.303	-0.102	-1.643
C	-2.486	-0.124	0.33
H	-3.571	-1.025	1.746
CA	-1.673	-0.651	2.56
O	-1.414	0.372	-0.015
N	-2.699	-0.636	1.538
HA	-1.347	0.363	2.732
C	-0.487	-1.495	2.109
H	-1.724	-2.96	1.547
CA	0.247	-3.6	1.131
O	0.666	-1.077	2.216
N	-0.785	-2.687	1.604
HA	0.935	-3.776	1.945
C	1.013	-3.003	-0.044
H	-0.685	-2.297	-0.829
CA	0.894	-1.743	-2.124
O	2.235	-3.124	-0.129
N	0.285	-2.359	-0.951
HA	1.506	-2.489	-2.609
C	1.778	-0.566	-1.727
H	0.272	0.259	-0.702
CA	1.946	1.542	-0.521
O	2.949	-0.502	-2.101
N	1.21	0.365	-0.967
HA	2.286	2.071	-1.399
C	3.162	1.143	0.311
H	2.056	-0.143	1.372
CA	4.032	-0.238	2.114
O	4.262	1.653	0.104
N	2.955	0.228	1.253
HA	4.501	0.62	2.551
C	5.072	-1.014	1.315
H	3.632	-1.977	0.323
CA	5.489	-2.68	-0.406
O	6.276	-0.83	1.5
N	4.601	-1.878	0.425
HA	6.132	-3.251	0.249
C	6.351	-1.792	-1.295
H	4.723	-0.862	-1.99
CA	6.406	0.008	-2.933
O	7.578	-1.904	-1.301
N	5.701	-0.905	-2.042
HA	6.956	-0.585	-3.648
C	7.388	0.875	-2.152
H	5.989	1.274	-0.779
CA	7.758	2.284	-0.203
O	8.544	1.028	-2.545
N	6.919	1.436	-1.042
HA	8.094	3.116	-0.802
C	8.973	1.517	0.3
H	7.831	-0.069	0.709
CA	9.82	-0.562	1.233
O	10.092	2.029	0.291
N	8.745	0.283	0.732
HA	10.287	-0.052	2.064
C	10.865	-0.803	0.151
H	9.445	-0.799	-1.256
CA	11.296	-1.116	-2.223
O	12.058	-0.905	0.434
N	10.406	-0.891	-1.094
HA	11.929	-1.955	-1.981
C	12.172	0.107	-2.476
H	10.564	1.293	-2.51
CA	12.252	2.513	-2.832
O	13.395	0	-2.566
N	11.537	1.27	-2.59
HA	13.007	2.316	-3.576
C	12.932	3.023	-1.562
H	11.942	1.699	-0.436
CA	13.174	2.826	0.85
O	13.747	3.944	-1.614
N	12.594	2.425	-0.422
HA	14.162	3.204	0.652
C	13.285	1.636	1.799
H	14.38	0.634	0.46
CA	14.162	-0.606	2.162
O	12.753	1.661	2.91
N	13.98	0.594	1.354
HA	13.186	-1.021	2.367
C	14.847	-0.279	3.484
H	16.132	0.937	2.553
CA	16.609	0.963	4.615
O	14.458	-0.784	4.538
N	15.869	0.568	3.422
HA	16.298	0.32	5.426
C	16.303	2.409	4.991
OXT	15.392	3	4.375
O	16.979	2.939	5.897