170

N	9.025	-15.249	4.435
H1	8.421	-14.788	5.122
H2	8.481	-15.754	3.735
CA	9.762	-14.15	3.792
HA	10.555	-14.57	3.176
C	8.818	-13.361	2.878
H	9.269	-14.574	1.318
CA	7.804	-13.22	0.645
O	8.13	-12.439	3.306
N	8.756	-13.757	1.604
HA	7.97	-12.148	0.588
C	6.369	-13.502	1.097
H	6.99	-15.247	1.866
CA	4.936	-15.199	2.267
O	5.467	-12.694	0.887
N	6.177	-14.654	1.741
HA	4.164	-15.147	1.498
C	4.475	-14.438	3.518
H	4.744	-12.7	2.567
CA	4.533	-12.271	4.643
O	4.144	-15.037	4.539
N	4.508	-13.112	3.46
HA	5.294	-12.67	5.317
C	3.189	-12.294	5.37
H	2.137	-12.211	3.614
CA	0.758	-12.424	5.102
O	3.138	-12.369	6.595
N	2.093	-12.255	4.61
HA2	0.688	-13.459	5.408
C	-0.246	-12.151	3.991
H	-1.695	-13.009	5.09
CA	-2.618	-12.38	3.3
O	0.124	-11.608	2.952
N	-1.498	-12.562	4.212
HA	-2.281	-11.883	2.398
C	-3.647	-11.466	3.958
H	-3.791	-12.761	5.485
CA	-4.506	-10.924	6.219
O	-4.027	-10.44	3.402
N	-4.034	-11.834	5.184
HA	-5.584	-10.794	6.131
C	-3.819	-9.56	6.094
H	-2.035	-10.498	6.225
CA	-1.724	-8.433	6.469
O	-4.456	-8.507	6.023
N	-2.49	-9.603	6.127
HA	-2.174	-7.99	7.362
C	-1.723	-7.432	5.338
H	-1.888	-5.935	6.692
CA	-1.811	-5.098	4.739
O	-1.615	-7.785	4.167
N	-1.803	-6.161	5.713
HA2	-1.88	-4.179	5.3
C	-3.042	-5.12	3.853
H	-3.983	-6.079	5.354
CA	-5.438	-5.841	3.993
O	-3.038	-4.594	2.743
N	-4.098	-5.667	4.443
HA	-5.46	-6.923	3.974
C	-5.76	-5.351	2.577
H	-5.938	-3.444	3.199
CA	-6.131	-3.436	1.078
O	-5.805	-6.154	1.646
N	-5.965	-4.047	2.391
HA	-6.815	-4.017	0.464
C	-4.784	-3.375	0.348
H	-4.748	-5.364	0.369
CA	-2.998	-4.866	-0.689
O	-4.286	-2.281	0.075
N	-4.237	-4.557	0.025
HA	-2.682	-5.848	-0.335
C	-1.858	-3.898	-0.358
H	-2.801	-2.479	-1.359
CA	-1.106	-1.545	-0.58
O	-0.959	-4.203	0.419
N	-1.926	-2.69	-0.91
HA	-0.077	-1.855	-0.553
C	-1.437	-0.965	0.805
H	-1.842	-2.795	1.562
CA	-2.163	-1.395	3.128
O	-1.358	0.25	1.008
N	-1.829	-1.806	1.769
HA	-2.57	-2.205	3.721
C	-3.237	-0.301	3.16
H	-3.689	-0.651	1.258
CA	-4.662	1.18	1.76
O	-3.438	0.319	4.198
N	-3.9	-0.036	2.035
HA	-4.947	1.083	0.713
C	-3.801	2.447	1.855
H	-3.449	2.146	3.812
CA	-2.597	4.044	3.258
O	-3.636	3.163	0.867
N	-3.25	2.76	3.029
HA	-3.331	4.811	3.016
C	-1.443	4.328	2.297
H	-1.325	2.406	1.615
CA	0.066	3.555	0.529
O	-1.031	5.477	2.21
N	-0.94	3.337	1.551
HA	0.687	4.385	0.852
C	-0.582	3.967	-0.79
H	-1.922	2.439	-0.729
CA	-2.333	3.607	-2.472
O	-0.201	4.996	-1.344
N	-1.577	3.211	-1.28
HA	-1.605	3.716	-3.269
C	-2.955	4.976	-2.278
H	-2.948	4.653	-0.29
CA	-3.509	6.699	-0.691
O	-3.184	5.701	-3.237
N	-3.191	5.327	-1.017
HA	-4.165	7.121	-1.454
C	-2.207	7.504	-0.703
H	-1.694	6.804	1.132
CA	-0.412	8.442	0.669
O	-1.877	8.161	-1.683
N	-1.455	7.463	0.395
HA	-0.876	9.428	0.666
C	0.7	8.476	-0.362
H	0.756	6.444	-0.507
CA	2.318	7.291	-1.693
O	1.117	9.546	-0.793
N	1.224	7.312	-0.74
HA	3.121	7.91	-1.298
C	1.855	7.905	-3.007
H	-0.052	7.389	-2.567
CA	-0.023	8.276	-4.516
O	2.639	8.523	-3.725
N	0.56	7.762	-3.291
HA	0.743	8.207	-5.274
C	-0.392	9.757	-4.343
H	-0.783	9.492	-2.36
CA	-0.877	11.574	-2.746
O	-0.315	10.527	-5.296
N	-0.707	10.174	-3.109
HA	-1.674	11.997	-3.353
C	0.415	12.337	-3.012
H	1.401	11.082	-1.762
CA	2.787	12.532	-2.526
O	0.451	13.284	-3.799
N	1.497	11.886	-2.374
HA	2.622	13.599	-2.377
C	3.311	12.337	-3.949
H	2.488	10.491	-4.027
CA	3.202	10.872	-5.976
O	3.989	13.222	-4.477
N	2.966	11.2	-4.573
HA2	4.264	10.979	-6.193
C	2.395	11.761	-6.927
H	3.274	13.344	-6.096
CA	1.961	14.149	-7.502
O	1.67	11.297	-7.803
N	2.593	13.066	-6.783
HA	0.881	14.024	-7.517
C	2.435	14.218	-8.953
H	4.108	13.269	-8.434
CA	4.033	12.928	-10.434
O	1.746	14.811	-9.78
N	3.585	13.593	-9.227
HA	3.982	11.91	-10.071
C	3.117	12.856	-11.652
H	2.881	10.863	-11.346
CA	1.584	11.269	-12.84
O	2.886	13.845	-12.347
N	2.539	11.662	-11.838
HA	1.274	12.125	-13.386
C	2.286	10.308	-13.796
OXT	1.906	10.302	-14.985
O	3.183	9.591	-13.298