62

N	-1.497	-3.461	7.542
H1	-1.642	-2.457	7.771
H2	-0.497	-3.71	7.688
CA	-1.865	-3.705	6.117
HA	-1.145	-3.248	5.457
C	-3.27	-3.166	5.833
H	-2.61	-1.902	4.473
CA	-4.707	-1.664	4.605
O	-4.241	-3.598	6.424
N	-3.385	-2.227	4.932
HA	-5.458	-2.318	4.964
C	-4.851	-1.462	3.093
H	-3.683	0.147	3.105
CA	-4.322	-0.194	1.082
O	-5.522	-2.22	2.42
N	-4.224	-0.447	2.55
HA	-3.917	-1.028	0.54
C	-3.57	1.091	0.718
H	-1.856	0.361	1.395
CA	-1.489	2.345	0.662
O	-4.14	2.034	0.204
N	-2.292	1.131	0.983
HA	-1.94	2.897	-0.148
C	-0.065	1.911	0.298
H	0.764	3.13	1.634
CA	2.329	2.051	0.632
O	0.131	1.066	-0.554
N	0.933	2.46	0.942
HA2	2.336	1.468	-0.278
C	2.879	1.207	1.787
H	1.182	1.328	2.803
CA	2.546	0.167	3.949
O	4.014	0.776	1.766
N	2.082	0.973	2.797
HA	3.548	0.386	4.153
C	2.359	-1.314	3.675
H	0.867	-0.887	2.504
CA	1.08	-2.993	2.515
O	3.067	-2.163	4.178
N	1.397	-1.603	2.877
HA	1.275	-3.644	3.306
C	1.91	-3.407	1.294
H	2.465	-1.534	0.982
CA	3.377	-2.772	-0.52
O	2.011	-4.567	0.949
N	2.533	-2.459	0.661
HA	3.044	-3.655	-0.986
C	4.832	-2.982	-0.074
H	4.449	-2.206	1.696
CA	6.524	-2.786	1.65
O	5.653	-3.509	-0.797
N	5.138	-2.601	1.129
HA	7.245	-2.673	0.855
C	6.663	-4.162	2.308
H	5.648	-3.6	3.906
CA	6.206	-5.63	4.174
O	7.25	-5.069	1.752
N	6.119	-4.327	3.485
HA	6.193	-6.409	3.452
C	5.043	-5.792	5.156
OXT	4.035	-6.356	4.763
O	5.18	-5.35	6.285