152

N	-6.727	-5.873	3.497
H1	-7.014	-6.541	4.24
H2	-6.832	-4.899	3.846
CA	-7.588	-6.064	2.295
HA2	-7.121	-6.775	1.629
C	-7.764	-4.726	1.575
H	-5.83	-4.3	1.729
CA	-6.811	-2.674	0.706
O	-8.853	-4.362	1.179
N	-6.7	-3.99	1.401
HA	-5.835	-2.25	0.54
C	-7.68	-1.72	1.525
H	-6.223	-0.37	1.667
CA	-7.954	0.379	2.718
O	-8.825	-2.008	1.813
N	-7.15	-0.587	1.909
HA	-8.725	0.833	2.117
C	-7.042	1.444	3.324
H	-6.677	2.263	1.545
CA	-5.593	3.35	3.051
O	-6.818	1.476	4.517
N	-6.501	2.306	2.516
HA2	-6.165	4.212	3.359
C	-4.632	3.731	1.945
H	-5.003	2.036	0.995
CA	-3.598	3.147	-0.144
O	-4.022	4.782	1.956
N	-4.501	2.871	0.98
HA	-2.653	3.527	0.207
C	-4.244	4.115	-1.118
H	-3.104	5.577	-0.488
CA	-4.357	6.317	-2.073
O	-5.098	3.759	-1.902
N	-3.81	5.327	-1.109
HA	-5.436	6.312	-2.056
C	-3.83	5.992	-3.48
H	-3.135	4.216	-2.891
CA	-2.691	4.443	-4.978
O	-3.964	6.772	-4.401
N	-3.23	4.837	-3.646
HA2	-3.293	4.884	-5.76
C	-2.744	2.922	-5.071
H	-1.11	2.821	-6.2
CA	-1.811	0.804	-5.843
O	-3.583	2.305	-4.457
N	-1.826	2.305	-5.774
HA	-1.266	0.453	-6.696
C	-3.221	0.243	-5.861
H	-3.911	1.861	-6.703
CA	-5.53	0.496	-6.369
O	-3.476	-0.848	-5.403
N	-4.136	0.981	-6.358
HA	-6.157	1.217	-6.838
C	-5.982	0.24	-4.929
H	-5.005	1.845	-4.296
CA	-5.945	0.932	-2.592
O	-6.677	-0.713	-4.642
N	-5.573	1.092	-4.026
HA	-5.694	1.821	-2.044
C	-5.221	-0.273	-1.985
H	-3.683	-0.062	-3.226
CA	-3.289	-1.747	-1.938
O	-5.7	-0.9	-1.063
N	-4.056	-0.59	-2.489
HA	-3.949	-2.58	-1.756
C	-2.573	-1.34	-0.642
H	-4.285	-1.277	0.351
CA	-2.712	-0.762	1.725
O	-1.366	-1.208	-0.598
N	-3.319	-1.153	0.416
HA	-1.901	-0.066	1.581
C	-2.241	-2.006	2.48
H	-2.228	-3.09	0.828
CA	-1.631	-4.357	2.451
O	-2.075	-1.986	3.683
N	-2.056	-3.095	1.784
HA	-2.479	-4.874	2.85
C	-0.603	-4.064	3.532
H	-0.002	-2.473	2.544
CA	1.174	-2.644	4.347
O	-0.477	-4.777	4.507
N	0.132	-3.015	3.349
HA2	1.593	-1.681	4.092
C	2.273	-3.705	4.333
H	1.024	-5.101	4.985
CA	2.962	-5.996	4.706
O	3.404	-3.44	3.974
N	1.944	-4.909	4.709
HA	3.884	-5.656	5.13
C	3.183	-6.489	3.28
H	1.654	-7.722	3.428
CA	2.504	-7.93	1.458
O	4.079	-6.052	2.587
N	2.364	-7.395	2.843
HA2	3.319	-8.638	1.427
C	2.79	-6.778	0.493
H	1.305	-5.692	1.241
CA	2.232	-4.545	-0.332
O	3.684	-6.859	-0.325
N	2.026	-5.715	0.58
HA	1.672	-4.685	-1.244
C	3.731	-4.377	-0.642
H	3.413	-4.419	-2.605
CA	5.53	-4.208	-2.266
O	4.554	-4.305	0.249
N	4.089	-4.34	-1.899
HA	6.153	-4.624	-1.504
C	5.905	-2.752	-2.526
H	4.95	-2.796	-4.24
CA	5.805	-0.827	-4.002
O	6.58	-2.116	-1.742
N	5.479	-2.24	-3.635
HA	6.776	-0.778	-4.469
C	5.761	0.086	-2.771
H	7.008	1.389	-3.608
CA	6.479	2.119	-1.651
O	5.09	-0.194	-1.798
N	6.476	1.182	-2.812
HA	6.724	1.592	-0.742
C	5.115	2.802	-1.524
H	5.12	3.357	-3.433
CA	3.291	4.042	-2.519
O	4.508	2.803	-0.471
N	4.622	3.375	-2.59
HA	3.333	4.908	-1.877
C	2.256	3.042	-2.009
H	3.157	1.548	-2.952
CA	1.447	0.76	-1.911
O	1.341	3.385	-1.288
N	2.406	1.799	-2.375
HA	0.459	0.955	-2.295
C	1.435	0.713	-0.381
H	3.247	1.51	-0.283
CA	2.553	1.154	1.723
O	0.483	0.276	0.234
N	2.492	1.163	0.235
HA2	1.73	1.731	2.12
C	3.878	1.772	2.174
H	3.164	3.615	1.99
CA	5.211	3.741	2.655
O	4.833	1.077	2.46
N	3.945	3.074	2.231
HA	5.942	3.699	1.864
C	5.759	3.091	3.927
H	7.342	4.288	3.936
CA	7.48	2.97	5.634
O	5.17	2.182	4.478
N	6.886	3.554	4.397
HA	8.012	2.061	5.405
C	6.388	2.708	6.675
OXT	5.37	3.379	6.619
O	6.588	1.84	7.509