110

N	-1.033	0.132	-1.403
H1	-0.889	-0.066	-0.39
H2	-2.056	0.106	-1.609
CA	-0.322	-0.877	-2.223
HA2	0.739	-0.803	-2.033
C	-0.572	-0.674	-3.698
H	1.398	-0.627	-4.064
CA	0.373	-0.296	-5.887
O	-1.724	-0.631	-4.134
N	0.501	-0.546	-4.466
HA2	-0.583	-0.672	-6.225
C	1.471	-0.957	-6.693
H	1.433	0.544	-8.013
CA	2.796	-0.91	-8.742
O	1.99	-2.002	-6.301
N	1.832	-0.334	-7.809
HA	2.503	-1.932	-8.923
C	4.219	-0.905	-8.184
H	4.187	1.083	-7.974
CA	6.133	0.409	-7.446
O	4.837	-1.956	-8.03
N	4.741	0.281	-7.888
HA	6.712	-0.303	-8.016
C	6.281	0.062	-5.966
H	4.367	0.514	-5.639
CA	5.188	-0.097	-3.798
O	7.353	-0.337	-5.516
N	5.196	0.202	-5.221
HA	6.132	0.236	-3.389
C	5.059	-1.599	-3.555
H	4.487	-1.859	-5.451
CA	4.469	-3.777	-4.554
O	5.28	-2.074	-2.443
N	4.66	-2.323	-4.604
HA	3.539	-3.976	-4.04
C	5.61	-4.483	-3.812
H	6.97	-3.326	-4.717
CA	7.991	-4.639	-3.405
O	5.373	-5.402	-3.025
N	6.84	-4.05	-4.067
HA2	7.97	-5.708	-3.558
C	8.015	-4.36	-1.913
H	7.525	-2.442	-2.207
CA	7.724	-2.749	-0.118
O	8.273	-5.26	-1.112
N	7.733	-3.121	-1.528
HA	8.61	-3.175	0.33
C	6.507	-3.338	0.588
H	5.488	-3.414	-1.133
CA	4.346	-4.422	0.341
O	6.505	-3.494	1.81
N	5.482	-3.679	-0.186
HA	3.895	-3.836	1.13
C	4.833	-5.756	0.904
H	6.013	-5.994	-0.689
CA	6.37	-7.619	0.612
O	4.394	-6.203	1.964
N	5.748	-6.381	0.174
HA	5.597	-8.271	0.992
C	7.381	-7.331	1.717
H	7.874	-5.624	0.816
CA	9.083	-5.782	2.541
O	7.522	-8.103	2.665
N	8.059	-6.198	1.589
HA	9.84	-6.551	2.568
C	8.492	-5.626	3.943
H	6.855	-4.706	3.225
CA	6.648	-4.865	5.338
O	9.106	-6.036	4.927
N	7.297	-5.041	4.038
HA	7.375	-4.418	6.002
C	6.231	-6.216	5.921
H	6.206	-7.006	4.085
CA	5.732	-8.579	5.411
O	6.07	-6.35	7.136
N	6.072	-7.206	5.034
HA	5.442	-9.105	4.505
C	4.558	-8.626	6.378
H	3.424	-7.697	5.033
CA	2.199	-8.147	6.684
O	4.677	-9.1	7.507
N	3.428	-8.116	5.919
HA	2.401	-7.661	7.627
C	1.784	-9.594	6.977
H	1.773	-10.031	5.036
CA	1.419	-11.829	6.078
O	1.575	-9.965	8.13
N	1.682	-10.404	5.931
HA	1.402	-12.054	7.131
C	2.542	-12.643	5.435
H	3.112	-11.039	4.394
CA	4.493	-12.557	3.921
O	2.688	-13.838	5.703
N	3.326	-11.969	4.584
HA	4.914	-11.791	3.285
C	4.114	-13.748	3.035
H	3.454	-12.503	1.617
CA	3.378	-14.447	0.783
O	4.226	-14.901	3.45
N	3.64	-13.441	1.822
HA	3.088	-13.916	-0.109
C	2.252	-15.409	1.147
H	3.409	-16.32	2.492
CA	1.665	-17.479	2.223
O	1.115	-15.262	0.69
N	2.565	-16.378	1.986
HA2	0.683	-17.218	1.852
C	1.564	-17.81	3.686
OXT	2.404	-18.582	4.182
O	0.647	-17.281	4.349