170

N	-21.203	3.07	7.209
H1	-21.035	2.977	6.187
H2	-21.723	2.236	7.552
CA	-22.009	4.302	7.475
HA	-23.047	4.123	7.242
C	-21.478	5.483	6.65
H	-19.61	5.196	7.278
CA	-19.616	6.884	5.938
O	-22.227	6.15	5.962
N	-20.194	5.746	6.715
HA2	-20.286	7.731	5.99
C	-19.429	6.47	4.475
H	-18.004	5.162	4.946
CA	-18.292	5.106	2.807
O	-20.092	6.976	3.59
N	-18.527	5.554	4.215
HA	-19.207	5.167	2.238
C	-17.748	3.668	2.784
H	-16.652	4.007	1.156
CA	-16.352	1.952	1.747
O	-18.093	2.858	3.624
N	-16.909	3.341	1.825
HA	-16.152	1.583	2.742
C	-15.058	1.91	0.909
H	-15.688	3.318	-0.359
CA	-13.706	2.697	-0.972
O	-14.158	1.147	1.205
N	-14.952	2.713	-0.13
HA	-13.586	1.725	-1.432
C	-12.471	3.017	-0.116
H	-13.427	4.428	0.921
CA	-11.403	4.293	1.671
O	-11.434	2.405	-0.277
N	-12.576	3.956	0.8
HA	-10.588	4.671	1.075
C	-10.963	3.044	2.438
H	-12.846	2.543	2.833
CA	-11.556	1.041	3.683
O	-9.786	2.751	2.54
N	-11.906	2.293	2.951
HA	-10.891	1.254	4.506
C	-10.906	0.053	2.708
H	-12.016	0.716	1.196
CA	-10.729	-0.839	0.436
O	-10.038	-0.709	3.077
N	-11.318	0.08	1.461
HA	-10.661	-1.844	0.825
C	-9.341	-0.346	0.007
H	-9.819	1.568	0.319
CA	-7.763	1.49	-0.355
O	-8.481	-1.138	-0.335
N	-9.11	0.952	0.034
HA	-7.604	1.367	-1.413
C	-6.664	0.756	0.431
H	-7.912	0.321	1.916
CA	-5.983	-0.523	2.398
O	-5.541	0.653	-0.016
N	-6.993	0.23	1.588
HA	-5.188	0.141	2.704
C	-5.408	-1.683	1.564
H	-7.189	-2.096	0.78
CA	-5.756	-3.473	-0.058
O	-4.221	-1.953	1.597
N	-6.242	-2.35	0.801
HA	-5.081	-4.107	0.495
C	-5.063	-2.905	-1.303
H	-6.103	-1.218	-1.192
CA	-4.778	-1.075	-2.878
O	-4.209	-3.537	-1.894
N	-5.419	-1.709	-1.692
HA	-4.647	-1.792	-3.667
C	-3.429	-0.475	-2.462
H	-4.166	0.07	-0.705
CA	-2.099	0.678	-0.77
O	-2.466	-0.509	-3.202
N	-3.367	0.067	-1.272
HA	-1.705	1.368	-1.499
C	-1.058	-0.399	-0.442
H	-2.438	-1.689	0.208
CA	-0.491	-2.622	0.393
O	0.125	-0.193	-0.635
N	-1.479	-1.543	0.055
HA	0.159	-2.282	1.18
C	0.348	-2.994	-0.84
H	-1.09	-2.434	-2.093
CA	0.594	-3.12	-3.262
O	1.478	-3.426	-0.719
N	-0.186	-2.804	-2.022
HA	0.988	-4.12	-3.214
C	1.731	-2.104	-3.408
H	0.506	-0.598	-3.001
CA	2.483	0.21	-3.317
O	2.869	-2.458	-3.66
N	1.427	-0.845	-3.223
HA	3.007	0.134	-4.252
C	3.457	0.053	-2.144
H	1.994	-0.535	-0.938
CA	3.834	-0.548	0.189
O	4.644	0.278	-2.277
N	2.954	-0.35	-1.003
HA	4.4	0.348	0.394
C	4.777	-1.733	-0.052
H	3.389	-2.734	-1.075
CA	5.181	-3.938	-1.025
O	5.916	-1.719	0.371
N	4.311	-2.753	-0.74
HA	5.488	-4.409	-0.105
C	6.405	-3.498	-1.837
H	5.267	-2.614	-3.212
CA	7.332	-2.343	-3.773
O	7.535	-3.756	-1.462
N	6.187	-2.819	-2.939
HA2	7.982	-3.176	-4.003
C	8.116	-1.278	-2.998
H	6.441	-0.395	-2.383
CA	8.112	0.698	-1.561
O	9.331	-1.287	-2.978
N	7.422	-0.37	-2.353
HA	8.696	1.325	-2.209
C	9.004	0.064	-0.486
H	7.611	-1.275	-0.041
CA	9.318	-1.64	1.228
O	10.123	0.488	-0.264
N	8.513	-0.955	0.17
HA	9.671	-0.926	1.949
C	10.501	-2.383	0.596
H	9.402	-2.964	-0.951
CA	11.402	-3.739	-1.223
O	11.589	-2.394	1.133
N	10.292	-2.996	-0.542
HA	11.764	-4.529	-0.591
C	12.546	-2.781	-1.581
H	11.275	-1.346	-2.098
CA	13.285	-0.598	-2.376
O	13.708	-3.12	-1.459
N	12.221	-1.589	-2.015
HA	13.907	-0.988	-3.16
C	14.131	-0.273	-1.14
H	12.51	0.024	-0.037
CA	14.244	0.328	1.217
O	15.346	-0.309	-1.181
N	13.489	0.021	-0.039
HA	14.997	1.071	1.029
C	14.887	-0.958	1.752
H	13.36	-2.047	1.111
CA	14.776	-3.378	2.042
O	15.97	-0.94	2.306
N	14.225	-2.071	1.571
HA	14.995	-3.338	3.098
C	16.039	-3.732	1.243
H	15.269	-2.995	-0.439
CA	17.243	-3.737	-0.875
O	16.991	-4.267	1.778
N	16.05	-3.429	-0.033
HA2	17.595	-4.734	-0.647
C	18.355	-2.723	-0.587
H	17.113	-1.176	-0.773
CA	19.08	-0.415	-0.318
O	19.493	-3.091	-0.366
N	18.037	-1.451	-0.591
HA	19.952	-0.868	0.128
C	18.524	0.683	0.599
H	20.268	0.877	1.534
CA	18.88	2.275	2.41
O	17.37	1.061	0.503
N	19.343	1.198	1.482
HA	17.898	2.619	2.126
C	19.875	3.443	2.406
OXT	21.058	3.195	2.592
O	19.437	4.565	2.215