98

N	20.772	4.426	2.487
H1	20.35	3.559	2.874
H2	20.028	5.138	2.332
CA	21.441	4.118	1.189
HA	21.055	4.775	0.426
C	21.149	2.67	0.804
H	21.421	3.097	-1.132
CA	20.942	1.038	-0.981
O	20.88	1.83	1.664
N	21.204	2.387	-0.493
HA2	21.339	0.94	-1.983
C	19.446	0.747	-1.004
H	19.682	-0.743	0.313
CA	17.621	-0.619	-0.166
O	18.684	1.41	-1.707
N	19.03	-0.248	-0.227
HA2	17.029	0.272	-0.011
C	17.363	-1.598	0.973
H	15.677	-0.638	1.46
CA	15.909	-2.263	2.799
O	18.145	-2.523	1.199
N	16.263	-1.39	1.686
HA	15.998	-3.291	2.483
C	14.474	-2.002	3.244
H	13.844	-3.642	2.282
CA	12.16	-2.734	3.196
O	14.196	-1.024	3.938
N	13.566	-2.881	2.836
HA	12.088	-2.54	4.256
C	11.395	-4.011	2.878
H	10.056	-3.607	4.312
CA	9.502	-5.442	3.4
O	11.78	-4.77	1.989
N	10.312	-4.246	3.615
HA	9.98	-6.054	2.656
C	8.113	-5.078	2.897
H	8.486	-6.011	1.17
CA	6.52	-5.232	1.071
O	7.329	-4.439	3.6
N	7.818	-5.501	1.675
HA	6.216	-4.227	1.324
C	5.483	-6.216	1.596
H	4.069	-4.798	1.576
CA	3.175	-6.589	2.278
O	5.792	-7.388	1.83
N	4.254	-5.739	1.779
HA	3.542	-7.595	2.383
C	2.003	-6.597	1.304
H	2.333	-8.528	0.896
CA	0.672	-7.908	-0.261
O	1.334	-5.584	1.108
N	1.764	-7.758	0.695
HA	0.12	-6.981	-0.319
C	-0.274	-9.017	0.194
H	-1.857	-7.823	-0.066
CA	-2.568	-9.696	0.626
O	0.163	-10.119	0.527
N	-1.569	-8.717	0.207
HA	-3.541	-9.227	0.604
C	-2.288	-10.181	2.046
H	-1.904	-12.031	1.38
CA	-1.672	-12.048	3.49
O	-2.38	-9.413	3.003
N	-1.955	-11.465	2.178
HA	-1.805	-11.291	4.248
C	-0.231	-12.558	3.556
H	0.355	-11.223	2.183
CA	2.054	-12.361	2.754
O	0.077	-13.479	4.315
N	0.651	-11.953	2.765
HA	2.314	-12.749	3.728
C	2.958	-11.17	2.447
H	4.387	-11.903	3.644
CA	5.102	-10.077	2.834
O	2.585	-10.278	1.686
N	4.148	-11.164	3.046
HA	4.726	-9.423	2.063
C	6.455	-10.625	2.395
H	7.077	-8.784	1.893
CA	8.656	-10.146	1.479
O	6.701	-11.828	2.47
N	7.329	-9.733	1.932
HA	8.987	-10.979	2.081
C	9.662	-9.007	1.62
H	11.099	-10.306	2.13
CA	11.961	-8.37	2.147
O	9.33	-7.84	1.408
N	10.899	-9.36	1.979
HA	11.52	-7.392	2.235
C	12.9	-8.376	0.945
H	13.268	-6.419	1.182
CA	14.386	-7.094	-0.489
O	13.106	-9.411	0.309
N	13.468	-7.212	0.64
HA	14.488	-6.052	-0.749
C	13.852	-7.856	-1.698
OXT	14.142	-9.036	-1.805
O	13.161	-7.248	-2.498