158

N	-8.891	1.729	16.597
H1	-9.372	2.111	17.434
H2	-8.325	0.903	16.869
CA	-8.011	2.777	16.016
HA	-7.589	3.369	16.814
C	-8.845	3.669	15.11
H	-7.729	5.257	15.595
CA	-9.207	5.902	14.222
O	-9.787	3.202	14.458
N	-8.491	4.949	15.06
HA	-10.267	5.703	14.285
C	-8.763	5.753	12.771
H	-10.596	5.152	12.226
CA	-9.374	5.161	10.492
O	-7.6	6.004	12.443
N	-9.686	5.338	11.908
HA	-8.352	5.463	10.314
C	-10.302	6.017	9.641
H	-9.005	5.976	8.122
CA	-10.678	7.116	7.514
O	-11.388	6.399	10.086
N	-9.875	6.311	8.422
HA	-11.541	7.494	8.041
C	-11.138	6.263	6.348
H	-11.985	7.851	5.487
CA	-12.3	6.177	4.222
O	-10.866	5.062	6.303
N	-11.817	6.89	5.401
HA	-12.645	5.199	4.521
C	-11.17	6.017	3.217
H	-11.484	4.041	3.128
CA	-9.877	4.506	1.819
O	-10.522	6.994	2.838
N	-10.938	4.783	2.784
HA	-9.985	5.173	0.978
C	-9.966	3.072	1.321
H	-8.577	3.433	-0.08
CA	-9.164	1.402	-0.235
O	-10.726	2.262	1.858
N	-9.172	2.752	0.305
HA	-10.101	0.923	0.017
C	-8.023	0.612	0.388
H	-9.336	-0.59	1.286
CA	-7.393	-1.238	1.846
O	-6.849	0.917	0.17
N	-8.382	-0.402	1.163
HA	-6.813	-0.624	2.51
C	-6.456	-1.903	0.855
H	-7.848	-1.736	-0.537
CA	-6.167	-2.669	-1.419
O	-5.329	-2.269	1.194
N	-6.94	-2.052	-0.355
HA	-5.747	-3.592	-1.068
C	-5.052	-1.743	-1.859
H	-6.405	-0.47	-2.58
CA	-4.489	0.364	-2.918
O	-3.873	-2.015	-1.636
N	-5.448	-0.63	-2.463
HA	-3.93	-0.019	-3.759
C	-3.564	0.651	-1.772
H	-5.155	0.581	-0.599
CA	-3.492	0.948	0.63
O	-2.352	0.781	-1.928
N	-4.184	0.716	-0.615
HA	-3.258	1.992	0.731
C	-2.23	0.121	0.689
H	-3.251	-1.433	-0.014
CA	-1.239	-2.042	0.312
O	-1.165	0.597	1.079
N	-2.367	-1.127	0.297
HA	-0.745	-1.969	1.267
C	-0.264	-1.649	-0.772
H	-1.781	-1.519	-2.039
CA	0.003	-1.01	-3.085
O	0.943	-1.525	-0.542
N	-0.81	-1.425	-1.947
HA	0.752	-1.759	-3.276
C	0.683	0.305	-2.746
H	-0.851	0.751	-1.564
CA	0.518	2.361	-1.469
O	1.767	0.611	-3.236
N	0.017	1.069	-1.904
HA	0.83	2.916	-2.326
C	1.704	2.172	-0.554
H	0.662	0.897	0.56
CA	2.616	1.058	1.352
O	2.776	2.732	-0.776
N	1.523	1.346	0.451
HA	2.918	1.945	1.877
C	3.733	0.56	0.498
H	2.344	-0.343	-0.598
CA	4.26	-0.771	-1.435
O	4.905	0.84	0.719
N	3.322	-0.188	-0.497
HA	5.006	-1.307	-0.883
C	4.935	0.318	-2.238
H	3.289	1.429	-2.115
CA	4.724	2.509	-3.233
O	6.088	0.188	-2.641
N	4.203	1.391	-2.466
HA	4.982	2.148	-4.206
C	5.98	3.056	-2.6
H	5.083	3.159	-0.812
CA	7.107	3.842	-0.65
O	7.001	3.219	-3.273
N	5.923	3.325	-1.315
HA	7.596	4.542	-1.311
C	8.048	2.707	-0.385
H	6.497	1.608	0.204
CA	8.262	0.418	0.303
O	9.251	2.8	-0.631
N	7.472	1.613	0.065
HA	8.881	0.561	1.17
C	9.129	0.202	-0.915
H	7.658	0.962	-2.039
CA	9.299	0.427	-3.309
O	10.258	-0.272	-0.827
N	8.575	0.572	-2.055
HA	9.657	-0.582	-3.39
C	10.488	1.356	-3.319
H	9.268	2.92	-3.24
CA	11.261	3.642	-3.265
O	11.639	0.917	-3.351
N	10.205	2.642	-3.274
HA	11.777	3.612	-4.206
C	12.242	3.336	-2.151
H	10.717	3.042	-0.908
CA	12.514	2.732	0.184
O	13.456	3.363	-2.346
N	11.698	3.045	-0.984
HA	13.097	3.596	0.439
C	13.458	1.574	-0.106
H	12.063	0.686	-1.224
CA	13.791	-0.552	-1.223
O	14.594	1.548	0.372
N	12.981	0.613	-0.881
HA	14.44	-0.789	-0.398
C	14.641	-0.272	-2.446
H	13.083	0.605	-3.305
CA	14.707	0.677	-4.668
O	15.813	-0.644	-2.509
N	14.028	0.362	-3.421
HA	15.214	-0.203	-5.014
C	15.735	1.788	-4.495
H	14.53	2.785	-3.255
CA	16.318	3.911	-3.499
O	16.806	1.745	-5.098
N	15.406	2.789	-3.7
HA	16.746	4.18	-4.451
C	17.444	3.537	-2.548
H	18.784	3.727	-4.019
CA	19.826	3.188	-2.26
O	17.213	3.297	-1.361
N	18.664	3.51	-3.071
HA	19.514	2.581	-1.422
C	20.461	4.472	-1.743
OXT	20.885	4.489	-0.609
O	20.512	5.424	-2.498