164

N	16.475	1.082	-2.596
H1	16.339	0.822	-3.593
H2	17.418	0.76	-2.29
CA	15.429	0.452	-1.759
HA2	14.46	0.758	-2.123
C	15.552	0.845	-0.304
H	13.577	1.096	-0.172
CA	14.384	1.477	1.73
O	16.658	0.905	0.237
N	14.419	1.127	0.325
HA	15.394	1.475	2.11
C	13.548	0.457	2.494
H	11.882	1.357	1.884
CA	11.322	-0.333	2.985
O	14.076	-0.43	3.166
N	12.237	0.594	2.376
HA2	11.301	-1.241	2.402
C	9.936	0.254	3.047
H	10.41	1.153	4.753
CA	8.372	1.544	4.354
O	9.143	0.128	2.107
N	9.682	0.981	4.116
HA2	7.632	0.888	3.927
C	8.221	2.917	3.746
H	9.072	2.281	2.064
CA	8.637	4.328	1.82
O	7.689	3.83	4.375
N	8.688	3.059	2.517
HA	8.393	5.091	2.544
C	7.546	4.303	0.747
H	8.299	2.612	0.027
CA	6.598	3.045	-1.143
O	6.686	5.184	0.7
N	7.585	3.266	-0.084
HA	5.65	2.832	-0.666
C	7.023	1.823	-1.935
H	8.872	2.113	-1.274
CA	8.94	0.449	-2.568
O	6.219	1.169	-2.597
N	8.313	1.538	-1.836
HA	8.72	0.585	-3.615
C	8.402	-0.908	-2.122
H	9.412	-0.811	-0.396
CA	8.471	-2.71	-0.512
O	7.569	-1.509	-2.796
N	8.857	-1.382	-0.972
HA	8.224	-3.298	-1.384
C	7.23	-2.56	0.328
H	7.743	-0.682	0.694
CA	5.706	-0.863	1.129
O	6.51	-3.515	0.618
N	7	-1.317	0.697
HA	5.44	-1.365	2.048
C	4.686	-1.182	0.037
H	6.109	-0.962	-1.37
CA	4.316	-1.529	-2.331
O	3.518	-1.45	0.313
N	5.161	-1.186	-1.211
HA2	3.317	-1.2	-2.124
C	4.302	-3.016	-2.578
H	6.254	-3.101	-2.211
CA	5.589	-5.083	-2.461
O	3.273	-3.59	-2.918
N	5.455	-3.637	-2.39
HA	5.38	-5.393	-3.469
C	4.611	-5.779	-1.522
H	4.796	-4.315	-0.177
CA	3.37	-5.696	0.549
O	4.108	-6.859	-1.823
N	4.333	-5.153	-0.391
HA	3.596	-6.741	0.679
C	1.95	-5.557	0.006
H	2.471	-3.91	-0.992
CA	0.426	-4.261	-1.379
O	1.077	-6.388	0.278
N	1.731	-4.514	-0.788
HA	-0.303	-4.292	-0.581
C	0.084	-5.343	-2.383
H	1.982	-5.387	-3.031
CA	0.935	-6.933	-4.046
O	-1.062	-5.767	-2.463
N	1.097	-5.811	-3.116
HA	0.432	-6.587	-4.935
C	0.126	-8.034	-3.39
H	1.031	-7.628	-1.659
CA	-0.114	-9.355	-1.388
O	-0.743	-8.656	-4.003
N	0.425	-8.247	-2.119
HA	-0.304	-10.152	-2.079
C	-1.393	-8.957	-0.659
H	-0.357	-7.76	0.557
CA	-2.368	-7.68	1.135
O	-2.487	-9.382	-1.025
N	-1.24	-8.129	0.365
HA2	-3.214	-8.307	0.911
C	-2.725	-6.264	0.846
H	-0.846	-5.749	1.222
CA	-1.96	-3.991	1.291
O	-3.811	-5.957	0.381
N	-1.75	-5.407	1.121
HA	-2.661	-3.89	2.093
C	-2.547	-3.304	0.065
H	-2.244	-4.879	-1.15
CA	-3.389	-3.391	-2.16
O	-2.935	-2.149	0.138
N	-2.656	-3.986	-1.06
HA	-3.003	-2.388	-2.279
C	-4.867	-3.319	-1.796
H	-4.535	-4.485	-0.192
CA	-6.491	-3.8	-0.064
O	-5.685	-2.754	-2.526
N	-5.196	-3.917	-0.653
HA	-7.227	-3.964	-0.836
C	-6.661	-2.39	0.497
H	-4.879	-2.547	1.373
CA	-5.75	-0.768	2.131
O	-7.555	-1.654	0.084
N	-5.692	-1.998	1.33
HA	-6.707	-0.709	2.632
C	-5.571	0.399	1.206
H	-4.616	-0.858	0.078
CA	-4.786	0.909	-0.984
O	-5.926	1.54	1.468
N	-4.979	0.054	0.126
HA	-3.962	1.565	-0.781
C	-6.026	1.708	-1.339
H	-7.032	0.024	-1.566
CA	-8.297	1.587	-2.256
O	-6.041	2.925	-1.233
N	-7.072	0.991	-1.705
HA	-8.025	2.249	-3.06
C	-9.042	2.362	-1.19
H	-7.644	1.79	0.056
CA	-9.1	2.742	1.204
O	-10.045	3.026	-1.439
N	-8.505	2.249	-0.008
HA	-10.164	2.763	1.104
C	-8.555	4.109	1.569
H	-6.729	3.353	1.407
CA	-6.49	5.335	2.031
O	-9.292	5.033	1.892
N	-7.237	4.161	1.628
HA	-7.118	5.981	2.612
C	-5.942	6.084	0.837
H	-5.236	4.366	0.151
CA	-4.363	5.869	-0.989
O	-6.172	7.276	0.649
N	-5.208	5.336	0.043
HA	-3.919	6.774	-0.626
C	-5.172	6.105	-2.241
H	-5.635	4.147	-2.215
CA	-6.628	5.028	-3.871
O	-5.251	7.215	-2.764
N	-5.77	5.013	-2.701
HA	-6.107	5.525	-4.676
C	-7.909	5.775	-3.553
H	-7.565	5.451	-1.617
CA	-9.257	6.706	-1.735
O	-8.647	6.187	-4.447
N	-8.153	5.914	-2.257
HA	-10.175	6.178	-1.937
C	-9.315	8.083	-2.389
OXT	-8.398	8.898	-2.148
O	-10.263	8.34	-3.161