122

N	1.79	-0.511	-0.139
H1	2.374	-0.049	0.55
H2	1.62	-1.455	0.192
CA	2.401	-0.497	-1.553
HA	2.537	0.553	-1.819
C	1.47	-1.137	-2.605
H	2.239	0.022	-4.066
CA	0.89	-1.338	-5.032
O	0.665	-1.999	-2.292
N	1.579	-0.719	-3.874
HA	-0.184	-1.319	-4.823
C	1.323	-2.795	-5.188
H	-0.505	-3.209	-5.901
CA	0.505	-5.093	-5.658
O	2.434	-3.185	-4.893
N	0.379	-3.628	-5.633
HA	1.161	-5.412	-4.84
C	1.128	-5.586	-6.959
H	-0.209	-4.511	-7.991
CA	0.976	-5.551	-9.458
O	2.094	-6.328	-6.963
N	0.588	-5.121	-8.091
HA	0.963	-6.646	-9.467
C	2.382	-5.094	-9.832
H	2.209	-3.391	-8.725
CA	4.126	-3.333	-9.594
O	3.087	-5.781	-10.547
N	2.82	-3.93	-9.324
HA	4.834	-4.091	-9.947
C	4.689	-2.714	-8.324
H	6.502	-3.441	-8.799
CA	6.761	-2.331	-6.991
O	3.985	-2.094	-7.55
N	5.994	-2.908	-8.105
HA	6.199	-1.506	-6.536
C	8.073	-1.765	-7.509
H	8.56	-3.57	-8.238
CA	10.161	-2.279	-8.787
O	8.378	-0.601	-7.35
N	8.862	-2.614	-8.184
HA	10.8	-1.951	-7.969
C	10.075	-1.135	-9.799
H	11.574	-0.192	-8.838
CA	10.989	1.133	-10.401
O	9.268	-1.143	-10.707
N	10.928	-0.115	-9.611
HA	11.756	1.773	-9.955
C	9.701	1.967	-10.319
H	9.198	1.114	-8.559
CA	7.463	2.159	-9.222
O	9.414	2.776	-11.181
N	8.874	1.737	-9.287
HA	7.256	2.784	-10.091
C	7.175	3.075	-8.035
H	6.867	1.47	-6.847
CA	6.396	3.178	-5.661
O	7.235	4.285	-8.141
N	6.848	2.485	-6.876
HA	6.334	4.25	-5.84
C	7.38	2.991	-4.53
H	7.426	0.966	-4.792
CA	8.856	1.447	-3.266
O	7.851	3.941	-3.939
N	7.814	1.746	-4.274
HA	8.503	1.823	-2.299
C	10.182	2.161	-3.54
H	9.658	2.358	-5.456
CA	11.409	3.497	-5.265
O	11.013	2.349	-2.678
N	10.357	2.615	-4.779
HA	12.393	3.041	-5.12
C	11.408	4.852	-4.582
H	9.417	5.105	-4.931
CA	10.188	6.923	-4.068
O	12.405	5.279	-4.033
N	10.268	5.558	-4.605
HA	11.09	7.465	-4.348
C	10.131	6.933	-2.551
H	8.828	5.382	-2.585
CA	9.267	5.864	-0.523
O	10.795	7.71	-1.891
N	9.357	6.004	-1.977
HA	9.09	6.854	-0.099
C	10.581	5.354	0.04
H	10.656	3.91	-1.375
CA	12.425	3.732	-0.192
O	11.154	5.909	0.955
N	11.155	4.332	-0.6
HA2	12.288	3.333	0.805
C	13.585	4.712	-0.165
H	12.922	5.587	-1.832
CA	14.697	6.608	-1.269
O	14.374	4.759	0.749
N	13.65	5.603	-1.145
HA	15.627	6.116	-0.981
C	14.496	7.819	-0.351
H	12.531	7.399	-0.143
CA	12.93	9.022	1.174
O	15.419	8.573	-0.097
N	13.279	8.003	0.175
HA	13.653	9.833	1.145
C	12.967	8.518	2.608
H	12.806	6.625	1.951
CA	12.718	6.536	4.1
O	13.053	9.299	3.537
N	12.893	7.194	2.789
HA	12.609	7.314	4.848
C	13.924	5.705	4.499
H	14.241	5.166	2.561
CA	15.687	4.133	3.716
O	14.296	5.652	5.655
N	14.565	5.057	3.514
HA	15.692	3.825	4.761
C	17.013	4.806	3.412
H	16.226	5.482	1.681
CA	18.312	6.091	1.729
O	17.967	4.723	4.162
N	17.072	5.477	2.254
HA	19.126	5.382	1.902
C	18.714	7.402	2.428
OXT	19.892	7.515	2.846
O	17.862	8.314	2.563