140

N	-5.412	4.839	-0.291
H1	-5.468	5.131	-1.29
H2	-4.84	3.968	-0.228
CA	-6.772	4.604	0.248
HA2	-7.339	5.522	0.179
C	-6.742	4.157	1.691
H	-8.36	5.258	2.102
CA	-7.731	4.335	3.901
O	-5.89	3.362	2.079
N	-7.68	4.656	2.484
HA	-7.04	3.524	4.079
C	-9.134	3.876	4.303
H	-9.93	4.788	2.706
CA	-11.485	3.805	3.753
O	-9.312	3.207	5.318
N	-10.124	4.229	3.49
HA2	-11.755	4.092	4.758
C	-11.645	2.306	3.607
H	-11.583	2.456	1.62
CA	-11.675	0.399	2.117
O	-11.786	1.587	4.597
N	-11.62	1.831	2.372
HA	-11.39	-0.103	3.03
C	-10.675	0.019	1.029
H	-10.295	1.944	0.653
CA	-8.985	0.795	-0.542
O	-10.455	-1.157	0.751
N	-10.044	1.028	0.433
HA	-9.328	0.05	-1.242
C	-7.739	0.28	0.167
H	-8.55	0.762	1.926
CA	-6.633	-0.027	2.319
O	-6.802	-0.209	-0.459
N	-7.753	0.391	1.491
HA	-5.727	0.373	1.889
C	-6.54	-1.549	2.361
H	-8.363	-1.686	1.553
CA	-7.691	-3.652	1.926
O	-5.521	-2.116	2.767
N	-7.607	-2.2	1.912
HA	-7.58	-3.981	2.948
C	-6.568	-4.261	1.092
H	-6.837	-2.903	-0.362
CA	-5.193	-4.118	-0.895
O	-5.968	-5.259	1.484
N	-6.283	-3.656	-0.056
HA	-4.882	-5.076	-0.52
C	-4	-3.18	-0.834
H	-5.147	-1.699	-0.132
CA	-3.157	-0.985	-0.218
O	-2.881	-3.571	-1.187
N	-4.231	-1.957	-0.371
HA	-2.739	-0.791	-1.196
C	-2.066	-1.538	0.689
H	-3.39	-2.756	1.584
CA	-1.492	-3.058	2.489
O	-0.9	-1.165	0.574
N	-2.446	-2.457	1.571
HA	-0.507	-2.73	2.188
C	-1.535	-4.572	2.389
H	-2.256	-4.444	0.532
CA	-1.942	-6.489	0.97
O	-1.203	-5.282	3.336
N	-1.944	-5.06	1.23
HA	-1.422	-6.973	1.783
C	-1.201	-6.776	-0.327
H	-1.953	-5.117	-1.145
CA	-0.596	-5.951	-2.528
O	-0.525	-7.793	-0.461
N	-1.336	-5.866	-1.281
HA	-0.098	-6.909	-2.558
C	0.452	-4.844	-2.573
H	-0.908	-3.494	-1.99
CA	0.933	-2.488	-2.261
O	1.62	-5.091	-2.868
N	0.03	-3.626	-2.24
HA2	1.516	-2.524	-3.17
C	1.88	-2.458	-1.071
H	1.044	-4.101	-0.326
CA	2.584	-3.538	1.011
O	2.729	-1.574	-0.97
N	1.739	-3.433	-0.18
HA	2.423	-2.654	1.611
C	4.068	-3.621	0.642
H	3.636	-4.675	-0.999
CA	5.739	-4.49	-0.897
O	4.925	-3.068	1.332
N	4.363	-4.297	-0.462
HA	6.375	-4.44	-0.025
C	6.159	-3.404	-1.876
H	4.445	-2.431	-1.57
CA	5.576	-1.324	-2.973
O	7.247	-3.453	-2.445
N	5.292	-2.423	-2.064
HA	6.544	-1.505	-3.417
C	5.63	-0.009	-2.211
H	3.8	-0.33	-1.463
CA	4.434	1.591	-0.831
O	6.653	0.674	-2.204
N	4.543	0.317	-1.526
HA	4.774	2.367	-1.499
C	5.321	1.582	0.404
H	5.157	-0.401	0.524
CA	6.42	0.259	2.08
O	5.808	2.615	0.849
N	5.562	0.393	0.927
HA2	6.381	1.173	2.657
C	7.855	-0.015	1.685
H	7.441	0.397	-0.227
CA	9.465	-0.224	-0.12
O	8.694	-0.316	2.531
N	8.139	0.093	0.393
HA	10.123	-0.364	0.725
C	10.013	0.905	-0.99
H	8.59	0.58	-2.362
CA	9.947	1.994	-3.17
O	10.935	1.619	-0.589
N	9.417	1.078	-2.166
HA	11.02	1.871	-3.191
C	9.628	3.445	-2.812
H	8.25	2.847	-1.496
CA	8.387	4.957	-1.378
O	10.196	4.38	-3.373
N	8.715	3.625	-1.868
HA	8.288	5.611	-2.231
C	9.506	5.478	-0.485
H	9.713	3.677	0.347
CA	11.114	4.966	1.264
O	9.881	6.647	-0.556
N	10.041	4.597	0.351
HA	10.849	5.905	1.731
C	12.408	5.152	0.479
H	12.191	3.349	-0.349
CA	13.925	4.228	-1.165
O	13.066	6.187	0.578
N	12.75	4.153	-0.318
HA	14.621	4.918	-0.706
C	13.545	4.756	-2.542
OXT	13.178	3.942	-3.415
O	13.601	5.99	-2.741