110

N	-2.888	5.986	1.617
H1	-3.334	6.864	1.947
H2	-3.659	5.368	1.268
CA	-2.21	5.311	2.702
HA	-1.505	5.994	3.152
C	-1.457	4.081	2.197
H	0.251	5.099	2.123
CA	0.656	3.116	1.683
O	-2.045	3.027	1.94
N	-0.176	4.222	2.026
HA	0.012	2.255	1.704
C	1.708	2.946	2.756
H	1.614	0.93	2.661
CA	2.85	1.446	4.229
O	2.261	3.932	3.245
N	1.963	1.717	3.14
HA	2.967	2.359	4.789
C	4.174	1.012	3.675
H	5.078	2.525	4.56
CA	6.488	1.402	3.504
O	4.251	0.037	2.926
N	5.191	1.74	3.98
HA	6.386	0.58	2.814
C	7.341	0.918	4.632
H	7.886	-0.572	3.494
CA	8.897	-0.778	5.32
O	7.339	1.495	5.731
N	8.007	-0.163	4.38
HA	9.055	-0.088	6.134
C	10.218	-1.048	4.637
H	10.933	0.625	5.429
CA	12.522	-0.232	4.34
O	10.342	-2.002	3.844
N	11.163	-0.149	4.87
HA	13.025	0.681	4.626
C	12.499	-0.288	2.796
H	11.19	1.198	2.764
CA	11.602	0.644	0.799
O	13.145	-1.118	2.156
N	11.705	0.572	2.218
HA2	11.444	1.672	0.509
C	10.492	-0.215	0.232
H	10.398	-1.328	1.901
CA	8.96	-2.057	0.536
O	10.055	-0.002	-0.9
N	10.026	-1.188	1.001
HA	9.061	-2.163	-0.535
C	7.628	-1.396	0.838
H	7.397	-0.912	-1.071
CA	5.764	-0.149	-0.001
O	7.185	-1.368	1.993
N	7.019	-0.844	-0.166
HA	5.647	0.09	1.043
C	4.604	-1.023	-0.393
H	3.757	-0.78	1.41
CA	2.512	-1.986	0.273
O	4.56	-1.552	-1.502
N	3.683	-1.206	0.523
HA	2.438	-2.147	-0.792
C	1.328	-1.176	0.734
H	0.347	-1.502	-0.957
CA	-0.754	-0.213	0.24
O	1.333	-0.636	1.842
N	0.353	-1.039	-0.092
HA	-0.396	0.514	0.946
C	-1.842	-1.006	0.907
H	-1.511	-0.003	2.549
CA	-3.096	-1.332	2.899
O	-2.443	-1.901	0.316
N	-2.056	-0.706	2.146
HA	-3.306	-2.296	2.458
C	-4.302	-0.444	2.764
H	-4.93	-1.539	1.237
CA	-6.221	0.044	1.465
O	-4.477	0.533	3.508
N	-5.093	-0.746	1.791
HA	-6.011	1.081	1.676
C	-7.424	-0.426	2.243
H	-8.256	1.33	1.988
CA	-9.608	0.102	3.008
O	-7.472	-1.56	2.718
N	-8.376	0.431	2.37
HA	-9.458	-0.792	3.593
C	-10.603	-0.172	1.91
H	-9.984	-2.064	1.864
CA	-11.348	-1.927	0.321
O	-11.317	0.724	1.481
N	-10.551	-1.41	1.415
HA	-10.793	-2.757	-0.09
C	-11.544	-0.894	-0.825
H	-9.59	-0.896	-1.16
CA	-10.513	0.431	-2.543
O	-12.65	-0.435	-1.104
N	-10.449	-0.514	-1.444
HA2	-9.845	0.097	-3.323
C	-10.119	1.835	-2.133
H	-10.513	1.448	-0.214
CA	-9.799	3.404	-0.336
O	-9.766	2.659	-2.973
N	-10.19	2.117	-0.851
HA	-9.843	4.111	-1.149
C	-8.366	3.295	0.132
H	-7.823	3.675	-1.69
CA	-6.058	3.445	-0.545
O	-8.083	2.927	1.278
N	-7.486	3.495	-0.788
HA	-5.883	2.671	0.187
C	-5.559	4.756	0.025
OXT	-5.226	4.804	1.214
O	-5.484	5.757	-0.714