60

N	2.287	10.659	0.804
H1	1.861	11.556	0.496
H2	3.219	10.844	1.23
CA	2.444	9.779	-0.339
HA2	2.065	10.285	-1.227
C	1.703	8.469	-0.169
H	1.718	8.183	-2.181
CA	0.714	6.526	-1.252
O	1.383	8.071	0.95
N	1.427	7.798	-1.282
HA	-0.115	6.607	-0.546
C	1.636	5.398	-0.796
H	1.164	5.785	1.143
CA	2.554	4.149	1.081
O	2.264	4.726	-1.614
N	1.711	5.196	0.516
HA	3.126	3.663	0.288
C	1.709	3.085	1.774
H	0.332	4.493	2.276
CA	-0.318	2.588	3.026
O	2.073	1.91	1.803
N	0.579	3.505	2.333
HA	0.241	2.099	3.823
C	-0.843	1.518	2.076
H	-1.186	2.932	0.658
CA	-1.764	1.015	-0.119
O	-0.886	0.337	2.419
N	-1.244	1.939	0.881
HA	-2.641	0.52	0.297
C	-0.731	-0.05	-0.474
H	0.753	1.329	-0.325
CA	1.619	-0.569	-0.848
O	-1.075	-1.21	-0.7
N	0.534	0.353	-0.522
HA	1.475	-0.943	-1.855
C	1.635	-1.755	0.108
H	0.923	-0.576	1.608
CA	1.202	-2.574	2.341
O	2.014	-2.864	-0.269
N	1.225	-1.516	1.35
HA2	2.207	-2.985	2.442
C	0.248	-3.693	1.973
H	-1.018	-2.352	1.117
CA	-1.857	-4.319	0.921
O	0.506	-4.861	2.267
N	-0.86	-3.337	1.329
HA	-1.952	-5.057	1.716
C	-1.43	-5.027	-0.362
H	-0.356	-3.394	-0.913
CA	-0.156	-4.9	-2.432
O	-1.812	-6.171	-0.609
N	-0.636	-4.339	-1.174
HA	-0.974	-5.439	-2.913
C	0.996	-5.871	-2.191
H	2.058	-4.396	-1.282
CA	3.224	-6.201	-1.271
O	0.923	-7.041	-2.564
N	2.058	-5.376	-1.565
HA	2.963	-7.256	-1.384
C	3.692	-5.99	0.166