60

N	9.131	4.691	-1.102
H1	9.792	4.052	-0.685
H2	9.572	5.179	-1.868
CA	7.986	3.949	-1.597
HA2	8.314	3.301	-2.41
C	6.885	4.855	-2.112
H	5.593	3.298	-2.147
CA	4.567	5.051	-2.828
O	7.099	6.051	-2.309
N	5.705	4.285	-2.33
HA	4.9	6.066	-3.047
C	3.458	5.117	-1.782
H	2.977	6.986	-2.394
CA	1.665	6.436	-0.794
O	3.245	4.169	-1.026
N	2.753	6.244	-1.746
HA	2.083	6.445	0.213
C	0.654	5.297	-0.89
H	0.168	5.869	-2.768
CA	-1.011	4.158	-2.25
O	0.485	4.523	0.053
N	-0.016	5.202	-2.032
HA	-1.57	4.014	-1.325
C	-0.344	2.839	-2.623
H	-2.138	2.064	-3.151
CA	-0.633	0.575	-3.468
O	0.872	2.693	-2.504
N	-1.147	1.882	-3.076
HA	-1.459	-0.012	-3.87
C	-0.055	-0.17	-2.27
H	-1.396	0.727	-1.048
CA	-0.168	-0.574	0.129
O	0.889	-0.948	-2.407
N	-0.626	0.075	-1.095
HA	0.872	-0.871	-0.008
C	-0.989	-1.822	0.429
H	-1.492	-1.989	-1.529
CA	-2.403	-3.584	-0.433
O	-1.074	-2.26	1.577
N	-1.595	-2.391	-0.608
HA2	-2.229	-3.986	0.565
C	-2.086	-4.655	-1.458
H	-0.119	-4.19	-1.364
CA	-0.375	-5.782	-2.772
O	-2.983	-5.348	-1.94
N	-0.808	-4.79	-1.795
HA	-1.16	-6.532	-2.876
C	0.902	-6.477	-2.311
H	1.809	-4.683	-2.076
CA	3.199	-6.224	-1.544
O	0.963	-7.706	-2.241
N	1.921	-5.684	-1.998
HA	3.531	-6.977	-2.258
C	3.056	-6.882	-0.176
H	2.001	-5.29	0.495
CA	2.168	-6.716	2.084
O	3.549	-7.987	0.046
N	2.379	-6.195	0.738
HA	2.534	-7.742	2.12
C	0.686	-6.717	2.441