116

N	-6.768	-11.685	4.797
H1	-6.628	-11.042	4.028
H2	-7.539	-11.337	5.358
CA	-5.535	-11.853	5.601
HA	-5.472	-11.03	6.312
C	-4.294	-11.731	4.714
H	-3.789	-10.016	5.67
CA	-2.259	-10.37	4.238
O	-4.069	-12.558	3.827
N	-3.498	-10.683	4.963
HA2	-1.429	-10.896	4.711
C	-1.958	-8.865	4.26
H	-1.928	-8.836	2.259
CA	-1.82	-6.805	2.864
O	-1.831	-8.274	5.338
N	-1.878	-8.251	3.08
HA	-0.937	-6.406	3.358
C	-3.064	-6.096	3.444
H	-2.254	-4.433	2.777
CA	-4.145	-3.87	3.598
O	-4.009	-6.691	3.972
N	-3.059	-4.787	3.28
HA	-4.84	-4.319	4.309
C	-4.945	-3.49	2.343
H	-3.245	-3.055	1.353
CA	-4.861	-2.611	0.009
O	-6.17	-3.588	2.344
N	-4.249	-3.096	1.264
HA	-5.931	-2.49	0.169
C	-4.734	-3.578	-1.169
H	-3.146	-4.503	-0.335
CA	-3.427	-5.343	-2.277
O	-5.509	-3.475	-2.117
N	-3.761	-4.489	-1.135
HA	-3.644	-4.804	-3.194
C	-4.296	-6.608	-2.288
H	-3.53	-7.083	-0.52
CA	-4.914	-8.629	-0.986
O	-5.108	-6.819	-3.187
N	-4.155	-7.405	-1.233
HA2	-5.348	-8.535	0.002
C	-4.077	-9.91	-1.007
H	-2.55	-8.959	-0.119
CA	-1.801	-10.889	-0.647
O	-4.53	-10.94	-1.511
N	-2.82	-9.827	-0.557
HA	-2.288	-11.864	-0.714
C	-0.906	-10.878	0.594
H	-0.624	-12.871	0.563
CA	0.599	-12.113	2.159
O	-0.631	-9.794	1.102
N	-0.357	-12.009	1.032
HA	0.229	-11.487	2.97
C	2.014	-11.56	1.849
H	1.26	-9.971	0.879
CA	3.387	-9.817	0.768
O	3.028	-12.119	2.282
N	2.115	-10.456	1.108
HA2	4.091	-10.566	0.405
C	4.004	-9.094	1.964
H	2.262	-8.124	2.326
CA	3.618	-7.49	3.828
O	5.166	-9.331	2.3
N	3.222	-8.238	2.629
HA	4.039	-8.187	4.552
C	2.396	-6.819	4.491
H	3.645	-5.654	5.521
CA	1.746	-4.93	6.027
O	1.252	-7.179	4.225
N	2.662	-5.832	5.343
HA	0.699	-5.144	5.83
C	1.886	-3.489	5.55
H	0.355	-2.933	6.737
CA	0.851	-1.25	5.542
O	2.751	-3.159	4.744
N	1.019	-2.607	6.055
HA	0.548	-1.281	4.499
C	2.133	-0.437	5.571
H	2.738	-1.221	7.331
CA	4.281	0.118	6.687
O	2.358	0.276	4.609
N	2.983	-0.576	6.595
HA	4.133	1.179	6.518
C	5.298	-0.323	5.635
H	4.204	-1.968	5.242
CA	5.844	-1.967	3.867
O	6.32	0.34	5.444
N	5.042	-1.448	4.977
HA	6.764	-1.394	3.774
C	5.127	-1.863	2.508
H	3.34	-1.821	3.417
CA	2.954	-1.46	1.365
O	5.797	-1.865	1.471
N	3.798	-1.725	2.522
HA	3.418	-1.94	0.52
C	2.872	0.055	1.114
H	1.728	0.238	2.726
CA	1.726	2.166	1.834
O	3.571	0.612	0.271
N	2.07	0.742	1.921
HA	1.043	2.35	2.657
C	0.944	2.557	0.581
H	0.606	0.645	0.033
CA	0.23	1.85	-1.672
O	0.726	3.738	0.363
N	0.491	1.611	-0.243
HA	1.026	2.521	-1.997
C	-1.104	2.543	-2.038
H	-1.333	3.332	-0.201
CA	-3.084	3.836	-1.237
O	-1.561	2.442	-3.181
N	-1.756	3.24	-1.104
HA	-3.325	4.158	-0.226
C	-4.156	2.802	-1.566
OXT	-4.342	1.885	-0.769
O	-4.771	2.866	-2.664