74

N	-6.56	-2.616	-1.778
H1	-6.945	-1.806	-2.305
H2	-7.348	-3.224	-1.477
CA	-5.8	-2.142	-0.592
HA	-6.467	-1.568	0.033
C	-4.636	-1.258	-1.015
H	-3.913	-1.286	0.848
CA	-2.602	-0.114	-0.326
O	-4.526	-0.869	-2.179
N	-3.767	-0.946	-0.059
HA	-2.281	-0.316	-1.335
C	-1.464	-0.465	0.627
H	-0.966	-2.021	-0.522
CA	0.373	-1.989	1.113
O	-1.248	0.209	1.634
N	-0.743	-1.529	0.297
HA	0.843	-1.122	1.554
C	1.397	-2.728	0.256
H	0.043	-2.953	-1.195
CA	1.845	-3.861	-1.854
O	2.55	-2.903	0.651
N	0.967	-3.143	-0.932
HA	2.251	-4.713	-1.333
C	2.992	-2.961	-2.296
H	1.685	-1.641	-3.033
CA	3.622	-0.867	-3.371
O	4.163	-3.28	-2.096
N	2.637	-1.831	-2.9
HA	4.445	-1.417	-3.805
C	4.149	-0.026	-2.212
H	5.945	0.1	-3.08
CA	6.047	1.162	-1.251
O	3.419	0.265	-1.265
N	5.418	0.361	-2.296
HA	5.687	0.803	-0.299
C	5.681	2.637	-1.383
H	4.479	2.244	-2.933
CA	4.418	4.328	-2.555
O	6.168	3.473	-0.622
N	4.829	2.951	-2.352
HA2	4.217	4.779	-1.596
C	3.175	4.44	-3.417
H	2.005	4.497	-1.794
CA	0.753	4.623	-3.497
O	3.264	4.46	-4.645
N	2.014	4.515	-2.773
HA	0.935	5.223	-4.376
C	-0.313	5.315	-2.652
H	0.257	4.312	-1.013
CA	-1.359	5.573	-0.469
O	-1.068	6.146	-3.159
N	-0.372	4.976	-1.365
HA	-1.27	6.647	-0.549
C	-1.121	5.17	0.985
H	-0.479	3.354	0.43
CA	-0.416	3.434	2.547
O	-1.338	5.969	1.896
N	-0.667	3.935	1.197
HA	-0.269	2.367	2.477
C	-1.602	3.704	3.469
H	-2.597	2.152	2.69
CA	-3.832	3.022	4.173
O	-1.579	4.638	4.27
N	-2.637	2.877	3.349
HA	-3.816	4.009	4.612
C	-3.858	1.984	5.289
H	-2.259	1.066	4.515
CA	-2.827	-0.002	6.253
O	-4.714	2.031	6.174
N	-2.914	1.049	5.244
HA	-3.828	-0.351	6.452
C	-2.229	0.538	7.549
OXT	-3.01	0.964	8.426
O	-0.987	0.531	7.675