110

N	-12.683	2.673	-0.315
H1	-12.125	3.153	0.421
H2	-13.318	3.365	-0.76
CA	-13.473	1.565	0.285
HA	-14.117	1.985	1.044
C	-12.554	0.53	0.943
H	-11.285	0.62	-0.607
CA	-10.482	-0.781	0.77
O	-12.845	0.05	2.043
N	-11.451	0.197	0.261
HA	-10.89	-1.189	1.689
C	-9.145	-0.073	1.093
H	-8.081	-1.762	0.816
CA	-6.7	-0.247	1.352
O	-9.141	1.131	1.372
N	-8.021	-0.814	1.057
HA	-6.801	0.828	1.371
C	-5.674	-0.622	0.278
H	-6.822	-2.149	-0.338
CA	-5.088	-2.171	-1.563
O	-4.641	0.042	0.144
N	-5.975	-1.682	-0.494
HA	-4.138	-2.414	-1.113
C	-4.86	-1.1	-2.643
H	-6.835	-0.738	-2.738
CA	-5.923	0.572	-4.14
O	-3.712	-0.822	-3.016
N	-5.964	-0.479	-3.106
HA	-5.49	0.14	-5.031
C	-5.07	1.772	-3.711
H	-5.462	1.387	-1.784
CA	-4.179	3.071	-1.822
O	-4.517	2.483	-4.556
N	-4.977	1.983	-2.392
HA	-4.113	3.855	-2.562
C	-2.767	2.58	-1.496
H	-3.501	0.814	-0.879
CA	-1.394	0.702	-0.654
O	-1.79	3.311	-1.681
N	-2.676	1.329	-1.007
HA	-0.844	1.411	-0.054
C	-0.548	0.358	-1.89
H	-2.196	0.098	-3.027
CA	-0.511	-0.266	-4.294
O	0.685	0.347	-1.81
N	-1.214	0.08	-3.033
HA	0.123	-1.114	-4.074
C	0.393	0.872	-4.808
H	-0.684	2.238	-3.803
CA	0.869	3.281	-4.81
O	1.341	0.621	-5.558
N	0.086	2.114	-4.397
HA2	0.973	3.264	-5.885
C	2.262	3.332	-4.187
H	1.672	2.13	-2.697
CA	3.711	2.58	-2.353
O	3.157	3.995	-4.72
N	2.432	2.63	-3.061
HA	4.435	3.113	-2.951
C	4.179	1.127	-2.182
H	2.377	0.638	-1.439
CA	3.489	-1.173	-1.439
O	5.335	0.787	-2.496
N	3.26	0.275	-1.669
HA	2.713	-1.506	-0.774
C	4.839	-1.477	-0.76
H	4.578	-3.451	-1.061
CA	6.45	-3.247	-0.084
O	5.531	-0.557	-0.299
N	5.191	-2.782	-0.69
HA	6.365	-3.123	0.981
C	7.646	-2.429	-0.585
H	6.963	-2.6	-2.466
CA	8.754	-1.478	-2.581
O	8.454	-1.942	0.219
N	7.686	-2.227	-1.919
HA2	9.666	-2.051	-2.515
C	9.008	-0.101	-1.99
H	7.033	0.338	-1.953
CA	8.093	2.002	-1.153
O	10.167	0.264	-1.767
N	7.936	0.668	-1.735
HA	9.056	2.378	-1.47
C	8.071	1.963	0.377
H	6.6	0.557	0.418
CA	7.114	1.026	2.449
O	8.852	2.681	1.02
N	7.197	1.114	0.973
HA	7.035	2.046	2.803
C	8.393	0.431	3.072
H	8.841	-0.609	1.389
CA	10.396	-0.973	2.803
O	8.695	0.715	4.235
N	9.141	-0.392	2.3
HA	10.245	-1.177	3.856
C	11.54	0.059	2.685
H	10.894	0.585	0.857
CA	12.569	1.805	1.292
O	12.359	0.198	3.598
N	11.569	0.77	1.543
HA2	13.547	1.404	1.512
C	12.352	3.055	2.134
H	10.376	2.978	1.785
CA	10.721	4.669	3.012
O	13.309	3.617	2.675
N	11.084	3.481	2.238
HA	11.627	5.224	3.205
C	10.096	4.276	4.35
OXT	9.048	3.592	4.341
O	10.666	4.646	5.398