140

N	-17.443	0.26	2.892
H1	-17.394	-0.313	3.759
H2	-18.425	0.281	2.546
CA	-16.562	-0.339	1.85
HA	-16.777	-1.395	1.765
C	-15.103	-0.153	2.252
H	-15.214	-1.708	3.508
CA	-13.246	-0.928	3.609
O	-14.425	0.748	1.759
N	-14.627	-1.01	3.15
HA	-13.13	-0.073	4.247
C	-12.288	-0.801	2.44
H	-13.235	-2.265	1.515
CA	-11.642	-1.631	0.261
O	-11.367	0.007	2.456
N	-12.503	-1.627	1.442
HA2	-10.792	-2.272	0.443
C	-11.151	-0.22	-0.055
H	-12.883	0.574	0.565
CA	-11.614	2.163	-0.042
O	-10.017	-0.034	-0.495
N	-11.997	0.774	0.196
HA	-11.178	2.246	-1.027
C	-10.585	2.596	1
H	-11.597	1.621	2.422
CA	-9.901	2.497	3.339
O	-9.613	3.282	0.685
N	-10.807	2.173	2.241
HA	-9.923	3.563	3.511
C	-8.476	2.083	2.986
H	-9.117	0.267	2.459
CA	-7.017	0.322	2.173
O	-7.537	2.865	3.122
N	-8.329	0.843	2.539
HA	-6.358	0.412	3.022
C	-6.426	1.107	1.007
H	-8.195	1.151	0.073
CA	-6.793	2.163	-1.141
O	-5.237	1.418	1.001
N	-7.257	1.422	0.022
HA	-6.114	1.537	-1.7
C	-6.047	3.42	-0.7
H	-7.357	3.73	0.782
CA	-5.91	5.277	0.851
O	-5.033	3.788	-1.291
N	-6.549	4.07	0.343
HA	-5.703	5.938	0.023
C	-4.598	4.93	1.544
H	-5.467	3.398	2.497
CA	-3.43	3.461	3.082
O	-3.578	5.587	1.332
N	-4.628	3.888	2.369
HA	-2.95	4.327	3.51
C	-2.457	2.78	2.122
H	-3.914	1.594	1.434
CA	-2.133	1.1	0.403
O	-1.275	3.119	2.076
N	-2.965	1.821	1.356
HA	-1.423	0.496	0.949
C	-1.368	2.078	-0.48
H	-2.912	3.36	-0.487
CA	-1.342	4.201	-1.64
O	-0.219	1.826	-0.846
N	-2	3.199	-0.812
HA	-0.894	3.709	-2.491
C	-0.244	4.889	-0.835
H	-1.43	4.954	0.778
CA	0.426	5.83	1.303
O	0.851	5.135	-1.34
N	-0.543	5.183	0.428
HA	0.826	6.7	0.805
C	1.569	4.868	1.615
H	0.273	3.391	2.006
CA	2.204	2.625	2.274
O	2.742	5.234	1.535
N	1.217	3.634	1.963
HA	2.889	3.005	3.015
C	2.976	2.245	1.017
H	1.279	2.157	-0.035
CA	2.876	1.662	-1.33
O	4.196	2.119	1.041
N	2.25	2.05	-0.076
HA2	3.227	0.645	-1.243
C	4.05	2.566	-1.661
H	2.967	4.199	-1.266
CA	4.914	4.813	-1.841
O	5.128	2.09	-2.007
N	3.845	3.868	-1.55
HA	5.356	4.555	-2.792
C	5.995	4.733	-0.769
H	4.612	4.614	0.673
CA	6.523	4.545	1.582
O	7.189	4.756	-1.073
N	5.573	4.632	0.484
HA	7.262	5.323	1.474
C	7.236	3.201	1.564
H	5.493	2.204	1.481
CA	7.082	0.794	1.495
O	8.46	3.15	1.591
N	6.475	2.116	1.51
HA	7.749	0.724	2.334
C	7.902	0.591	0.224
H	6.918	2.068	-0.723
CA	8.379	1.28	-2.049
O	8.788	-0.26	0.186
N	7.624	1.388	-0.805
HA	8.47	0.236	-2.308
C	9.78	1.867	-1.879
H	9.114	3.201	-0.532
CA	11.198	3.527	-0.803
O	10.725	1.431	-2.536
N	9.904	2.877	-1.016
HA	11.792	3.39	-1.694
C	11.966	2.917	0.376
H	10.324	2.015	1.108
CA	11.967	1.548	2.383
O	13.173	3.127	0.499
N	11.284	2.163	1.24
HA	12.775	2.2	2.689
C	12.563	0.203	1.98
H	10.847	-0.309	1.094
CA	12.207	-1.926	0.862
O	13.717	-0.095	2.286
N	11.76	-0.605	1.299
HA	12.992	-2.263	1.523
C	12.758	-1.877	-0.564
H	13.797	-0.215	-0.154
CA	14.162	-0.734	-2.178
O	12.448	-2.735	-1.39
N	13.578	-0.871	-0.848
HA	13.367	-0.691	-2.907
C	15.055	-1.931	-2.493
H	13.452	-3.064	-2.889
CA	15.18	-4.261	-3.167
O	16.28	-1.842	-2.414
N	14.432	-3.051	-2.846
HA	14.491	-5.088	-3.25
C	16.192	-4.57	-2.067
OXT	16.036	-4.04	-0.98
O	17.107	-5.333	-2.33