170

N	-22.963	-1.013	-4.543
H1	-22.393	-1.577	-5.205
H2	-23.131	-0.068	-4.947
CA	-22.237	-0.877	-3.244
HA	-22.829	-0.313	-2.541
C	-20.881	-0.198	-3.465
H	-21.524	1.502	-2.659
CA	-19.47	1.774	-3.258
O	-19.956	-0.794	-3.987
N	-20.761	1.045	-3.073
HA	-18.828	1.225	-3.929
C	-18.763	1.982	-1.908
H	-20.487	2.106	-0.912
CA	-18.876	2.332	0.51
O	-17.55	2.007	-1.841
N	-19.51	2.129	-0.834
HA	-18.309	3.25	0.521
C	-17.971	1.143	0.856
H	-19.408	-0.173	0.441
CA	-17.646	-1.265	1.048
O	-16.821	1.315	1.213
N	-18.48	-0.062	0.741
HA	-17.285	-1.225	2.064
C	-16.471	-1.347	0.066
H	-17.617	-0.783	-1.464
CA	-15.61	-1.087	-2.198
O	-15.357	-1.663	0.442
N	-16.713	-1.047	-1.19
HA	-15.144	-2.06	-2.207
C	-14.573	-0.009	-1.872
H	-15.98	1.298	-1.337
CA	-14.05	2.234	-1.082
O	-13.383	-0.231	-1.995
N	-15.014	1.149	-1.439
HA	-13.445	2.486	-1.929
C	-13.163	1.77	0.073
H	-14.669	0.791	0.903
CA	-12.918	0.497	2.13
O	-11.984	2.062	0.118
N	-13.724	1.024	0.986
HA	-12.464	1.308	2.678
C	-11.842	-0.448	1.58
H	-13.11	-1.223	0.245
CA	-11.191	-2.177	-0.01
O	-10.708	-0.438	2.022
N	-12.191	-1.248	0.597
HA	-10.727	-2.772	0.75
C	-10.134	-1.372	-0.772
H	-11.493	-0.059	-1.376
CA	-9.575	0.542	-2.171
O	-8.965	-1.711	-0.776
N	-10.544	-0.304	-1.407
HA	-9.06	-0.051	-2.896
C	-8.569	1.183	-1.216
H	-9.996	1.608	0.087
CA	-8.114	2.293	0.905
O	-7.382	1.215	-1.482
N	-9.037	1.669	-0.097
HA	-7.659	3.182	0.497
C	-7.039	1.271	1.298
H	-8.386	-0.192	1.386
CA	-6.457	-1.034	1.86
O	-5.87	1.592	1.404
N	-7.437	0.035	1.494
HA	-5.906	-0.748	2.732
C	-5.497	-1.294	0.693
H	-6.964	-1.113	-0.629
CA	-5.136	-1.524	-1.709
O	-4.312	-1.495	0.885
N	-6.006	-1.285	-0.513
HA	-4.707	-2.513	-1.668
C	-4.029	-0.464	-1.781
H	-5.307	1.005	-1.367
CA	-3.343	1.869	-1.603
O	-2.876	-0.777	-2.018
N	-4.372	0.783	-1.564
HA	-2.865	1.899	-2.569
C	-2.303	1.643	-0.498
H	-3.698	1.043	0.792
CA	-1.781	0.946	1.782
O	-1.121	1.845	-0.701
N	-2.739	1.208	0.662
HA	-1.272	1.855	2.063
C	-0.771	-0.125	1.356
H	-2.191	-1.223	0.491
CA	-0.305	-2.239	0.225
O	0.412	-0.005	1.611
N	-1.233	-1.161	0.693
HA	0.143	-2.744	1.065
C	0.777	-1.626	-0.675
H	-0.556	-0.478	-1.607
CA	1.388	-0.073	-2.456
O	1.945	-1.953	-0.567
N	0.391	-0.728	-1.551
HA	1.898	-0.813	-3.051
C	2.398	0.73	-1.622
H	0.968	1.464	-0.44
CA	2.868	2.251	0.23
O	3.587	0.689	-1.875
N	1.932	1.452	-0.627
HA	3.378	2.993	-0.363
C	3.883	1.322	0.912
H	2.5	-0.072	1.245
CA	4.383	-0.787	2.025
O	5.049	1.648	1.031
N	3.445	0.168	1.355
HA	4.847	-0.319	2.868
C	5.449	-1.259	1.041
H	4.087	-1.583	-0.352
CA	6.026	-2.083	-1.172
O	6.626	-1.279	1.35
N	5.042	-1.624	-0.141
HA	6.5	-2.999	-0.857
C	7.076	-0.988	-1.4
H	5.703	0.448	-1.255
CA	7.619	1.381	-1.589
O	8.251	-1.264	-1.555
N	6.654	0.255	-1.397
HA	8.171	1.254	-2.506
C	8.576	1.455	-0.393
H	7.111	1.063	0.91
CA	8.956	1.299	2.013
O	9.761	1.682	-0.555
N	8.071	1.254	0.807
HA	9.425	2.268	2.099
C	10.021	0.197	1.924
H	8.701	-1.122	1.226
CA	10.626	-2.096	1.353
O	11.175	0.415	2.237
N	9.638	-0.979	1.482
HA	11.1	-2.292	2.302
C	11.676	-1.74	0.293
H	10.294	-0.965	-0.915
CA	12.218	-0.767	-1.877
O	12.854	-1.984	0.47
N	11.251	-1.155	-0.803
HA	12.735	-1.638	-2.249
C	13.221	0.258	-1.33
H	11.775	1.318	-0.462
CA	13.662	2.281	-0.044
O	14.413	0.139	-1.538
N	12.742	1.254	-0.622
HA	14.249	2.74	-0.824
C	14.577	1.632	1.003
H	13.097	0.497	1.703
CA	14.884	0.043	2.831
O	15.75	1.936	1.082
N	14.047	0.729	1.795
HA	15.246	0.756	3.555
C	16.059	-0.683	2.158
H	14.942	-1.189	0.591
CA	16.932	-1.955	0.269
O	17.156	-0.724	2.682
N	15.834	-1.244	0.994
HA	17.43	-2.65	0.928
C	17.937	-0.937	-0.295
H	16.49	0.352	-0.747
CA	18.375	1.226	-1.335
O	19.13	-1.174	-0.307
N	17.457	0.189	-0.766
HA	19.085	0.769	-2.007
C	19.112	1.965	-0.207
H	17.451	2.131	0.88
CA	19.065	3.059	1.969
O	20.302	2.204	-0.289
N	18.411	2.332	0.839
HA	20.134	3.091	1.826
C	18.726	2.388	3.306
OXT	19.652	2.001	3.999
O	17.549	2.273	3.614