164

N	3.333	20.027	7.034
H1	3.053	20.992	7.136
H2	3.536	19.679	7.959
CA	2.252	19.246	6.354
HA	1.366	19.285	6.99
C	2.577	17.743	6.213
H	3.006	17.572	8.188
CA	3.322	15.635	7.335
O	2.441	17.156	5.137
N	2.954	17.07	7.315
HA	4.143	15.496	6.628
C	2.203	14.704	6.847
H	0.83	15.836	7.741
CA	-0.268	14.309	6.686
O	2.477	13.748	6.13
N	0.94	15.032	7.141
HA	-0.24	13.292	7.082
C	-0.333	14.152	5.161
H	0.131	16.081	4.921
CA	0.01	15.216	2.951
O	-0.566	13.049	4.667
N	-0.071	15.23	4.419
HA	-0.904	14.761	2.565
C	1.167	14.338	2.45
H	2.45	15.136	3.789
CA	3.503	13.602	2.702
O	0.969	13.53	1.543
N	2.357	14.452	3.049
HA	3.73	13.751	1.646
C	3.183	12.11	2.888
H	2.531	12.464	4.757
CA	2.213	10.371	4.394
O	3.374	11.318	1.963
N	2.644	11.737	4.056
HA	3.079	9.714	4.298
C	1.156	9.867	3.395
H	0.206	11.653	3.296
CA	-0.736	10.325	1.878
O	1.205	8.7	3.014
N	0.235	10.714	2.915
HA	-1.268	9.438	2.223
C	-0.05	9.925	0.558
H	1.188	11.511	0.65
CA	1.684	10.431	-1.153
O	-0.415	8.907	-0.036
N	0.949	10.692	0.101
HA	0.96	10.313	-1.96
C	2.481	9.119	-1.054
H	3.383	9.768	0.617
CA	4.17	7.783	0.186
O	2.32	8.225	-1.889
N	3.318	8.978	-0.02
HA	4.623	7.527	-0.772
C	3.382	6.544	0.629
H	2.012	7.679	1.58
CA	1.361	5.669	1.793
O	3.767	5.42	0.306
N	2.249	6.73	1.312
HA2	1.921	4.998	2.445
C	0.743	4.849	0.661
H	0.389	6.509	-0.432
CA	-0.181	4.814	-1.629
O	0.68	3.624	0.76
N	0.33	5.499	-0.434
HA2	-1.031	4.188	-1.354
C	0.886	3.932	-2.295
H	2.288	5.327	-1.938
CA	3.317	3.667	-2.788
O	0.586	2.83	-2.759
N	2.143	4.395	-2.3
HA	3.091	3.326	-3.798
C	3.618	2.416	-1.945
H	3.808	3.547	-0.304
CA	4.087	1.49	0.322
O	3.651	1.303	-2.469
N	3.821	2.587	-0.634
HA	4.956	0.932	-0.027
C	2.917	0.5	0.381
H	1.573	1.997	0.242
CA	0.446	0.192	0.223
O	3.136	-0.708	0.459
N	1.677	0.988	0.268
HA2	0.284	-0.268	1.199
C	0.443	-0.915	-0.836
H	1.719	0.103	-2.025
CA	1.37	-1.793	-2.962
O	-0.203	-1.943	-0.631
N	1.205	-0.764	-1.928
HA	0.384	-1.984	-3.385
C	1.865	-3.127	-2.365
H	3.016	-2.184	-1.008
CA	3.196	-4.303	-0.611
O	1.397	-4.183	-2.781
N	2.73	-3.101	-1.337
HA	3.703	-4.975	-1.304
C	2.031	-5.093	0.001
H	1.219	-3.388	0.644
CA	-0.074	-4.96	1.328
O	1.962	-6.313	-0.147
N	1.105	-4.391	0.657
HA	0.25	-5.808	1.933
C	-1.072	-5.479	0.284
H	-0.965	-3.737	-0.72
CA	-2.299	-5.021	-1.825
O	-1.525	-6.622	0.364
N	-1.385	-4.662	-0.728
HA	-3.256	-5.298	-1.385
C	-1.792	-6.248	-2.598
H	0.085	-5.505	-2.693
CA	0.156	-7.447	-3.573
O	-2.563	-7.173	-2.849
N	-0.496	-6.304	-2.924
HA	-0.354	-7.643	-4.516
C	0.066	-8.731	-2.732
H	0.663	-7.768	-1.052
CA	0.188	-9.781	-0.501
O	-0.294	-9.783	-3.261
N	0.341	-8.654	-1.424
HA	0.849	-10.587	-0.826
C	-1.249	-10.341	-0.502
H	-2.017	-8.491	-0.285
CA	-3.688	-9.85	-0.451
O	-1.442	-11.552	-0.633
N	-2.262	-9.469	-0.409
HA	-3.835	-10.635	0.292
C	-4.081	-10.435	-1.821
H	-3.03	-9.037	-2.827
CA	-3.807	-10.423	-4.282
O	-4.808	-11.426	-1.882
N	-3.584	-9.881	-2.932
HA	-4.881	-10.533	-4.437
C	-3.196	-11.827	-4.448
H	-1.513	-11.234	-3.527
CA	-1.286	-13.33	-3.948
O	-3.832	-12.72	-5.01
N	-1.98	-12.037	-3.937
HA	-1.229	-13.685	-4.978
C	-2.032	-14.396	-3.131
H	-2.104	-13.208	-1.49
CA	-3.125	-15.052	-1.012
O	-2.346	-15.468	-3.655
N	-2.391	-14.104	-1.872
HA	-2.563	-15.987	-1.04
C	-4.535	-15.372	-1.549
H	-4.79	-13.499	-2.263
CA	-6.514	-14.625	-2.889
O	-4.997	-16.501	-1.394
N	-5.205	-14.425	-2.231
HA	-7.227	-14.993	-2.151
C	-6.461	-15.689	-3.995
H	-4.612	-15.119	-4.523
CA	-5.109	-16.83	-5.751
O	-7.442	-16.413	-4.181
N	-5.342	-15.79	-4.728
HA	-6.008	-16.93	-6.363
C	-4.865	-18.223	-5.137
H	-4.232	-17.404	-3.42
CA	-4.072	-19.528	-3.141
O	-5.126	-19.228	-5.804
N	-4.355	-18.289	-3.899
HA	-3.831	-20.325	-3.844
C	-5.289	-20.058	-2.352
OXT	-5.152	-21.119	-1.699
O	-6.389	-19.464	-2.423