170

N	9.567	-5.882	15.835
H1	9.572	-4.882	15.691
H2	8.633	-6.153	16.101
CA	10.001	-6.58	14.593
HA	9.801	-5.904	13.759
C	9.164	-7.833	14.287
H	9.575	-8.755	16.06
CA	8.242	-10.035	14.975
O	8.582	-7.914	13.212
N	9.051	-8.811	15.196
HA	8.636	-10.567	14.107
C	6.755	-9.761	14.667
H	6.707	-8.24	15.978
CA	4.774	-8.312	15.041
O	6.157	-10.457	13.845
N	6.162	-8.733	15.287
HA	4.117	-9.173	15.183
C	4.578	-7.828	13.592
H	6.036	-6.442	13.785
CA	5.303	-6.336	11.763
O	3.744	-8.367	12.861
N	5.365	-6.839	13.146
HA	4.273	-6.04	11.574
C	5.638	-7.409	10.712
H	6.917	-8.358	11.947
CA	6.791	-9.543	10.159
O	5.081	-7.365	9.619
N	6.463	-8.412	11.043
HA	7.253	-9.129	9.265
C	5.551	-10.334	9.694
H	4.622	-9.947	11.428
CA	3.221	-11.039	10.224
O	5.532	-10.86	8.581
N	4.511	-10.407	10.533
HA	3.378	-11.856	9.516
C	2.241	-10.057	9.562
H	2.882	-8.569	10.745
CA	1.459	-7.698	9.389
O	1.499	-10.431	8.653
N	2.253	-8.789	9.982
HA	0.453	-8.065	9.188
C	2.01	-7.195	8.037
H	3.621	-8.376	8.138
CA	3.763	-7.324	6.278
O	1.416	-6.312	7.425
N	3.121	-7.739	7.532
HA	4.1	-6.295	6.412
C	2.793	-7.305	5.08
H	1.8	-8.899	5.777
CA	0.749	-8.245	4.014
O	2.904	-6.434	4.223
N	1.809	-8.21	5.037
HA	1.211	-8.24	3.025
C	-0.188	-7.019	4.084
H	0.017	-6.922	6.079
CA	-1.249	-5.277	5.536
O	-0.644	-6.523	3.05
N	-0.463	-6.501	5.291
HA	-2.162	-5.314	4.94
C	-0.473	-4.04	5.073
H	1.223	-4.762	5.864
CA	1.711	-2.925	4.831
O	-1.048	-3.134	4.474
N	0.839	-4.003	5.315
HA	1.208	-1.975	4.999
C	2.007	-2.996	3.327
H	1.935	-5.004	3.338
CA	2.203	-4.399	1.302
O	2.192	-1.956	2.694
N	2.002	-4.193	2.735
HA	3.186	-4.015	1.045
C	1.171	-3.626	0.462
H	-0.353	-4.224	1.653
CA	-1.166	-2.886	0.187
O	1.54	-2.955	-0.502
N	-0.11	-3.666	0.845
HA	-1.058	-3.012	-0.89
C	-1.085	-1.379	0.478
H	-0.198	-1.656	2.284
CA	-0.363	0.446	2.001
O	-1.472	-0.578	-0.376
N	-0.537	-0.962	1.633
HA	-1.317	0.955	1.863
C	0.649	1.144	1.089
H	2.154	-0.158	1.537
CA	2.851	1.263	0.059
O	0.3	2.147	0.469
N	1.885	0.644	0.975
HA	2.859	2.333	0.262
C	2.433	1.084	-1.414
H	1.735	-0.778	-1.078
CA	1.253	-0.255	-3.117
O	2.64	1.985	-2.226
N	1.788	-0.035	-1.767
HA	2.065	-0.106	-3.832
C	0.139	0.744	-3.498
H	-0.556	0.911	-1.596
CA	-1.653	2.3	-2.821
O	0.017	1.087	-4.674
N	-0.645	1.265	-2.542
HA	-2.36	1.887	-3.531
C	-1.053	3.546	-3.489
H	0.616	3.467	-2.374
CA	0.859	5.099	-3.754
O	-1.658	4.074	-4.417
N	0.156	3.973	-3.115
HA	0.265	6.004	-3.618
C	1.057	4.908	-5.269
H	0.88	2.913	-5.084
CA	1.103	3.328	-7.165
O	1.245	5.877	-6.003
N	1.035	3.662	-5.748
HA	1.842	3.984	-7.633
C	-0.247	3.584	-7.874
H	-1.263	2.502	-6.501
CA	-2.715	3.257	-7.899
O	-0.289	4.3	-8.877
N	-1.363	3.061	-7.336
HA	-2.601	3.209	-8.977
C	-3.332	4.633	-7.59
H	-2.263	4.874	-5.899
CA	-3.363	6.708	-6.229
O	-4.157	5.111	-8.363
N	-2.899	5.337	-6.539
HA	-4.435	6.662	-6.074
C	-3.125	7.666	-7.4
H	-1.527	6.591	-7.997
CA	-1.831	8.142	-9.435
O	-3.88	8.618	-7.586
N	-2.111	7.384	-8.224
HA	-1.827	9.201	-9.178
C	-2.917	7.939	-10.508
H	-3.328	6.046	-9.916
CA	-4.564	6.398	-11.596
O	-3.208	8.886	-11.222
N	-3.534	6.753	-10.609
HA	-4.2	6.634	-12.593
C	-5.854	7.18	-11.366
H	-6.005	6.371	-9.542
CA	-7.642	7.755	-9.75
O	-6.293	7.926	-12.238
N	-6.449	7.021	-10.179
HA	-8.441	7.502	-10.443
C	-7.447	9.278	-9.848
H	-5.692	9.233	-8.824
CA	-6.017	11.25	-9.479
O	-8.29	9.958	-10.429
N	-6.337	9.823	-9.337
HA	-6.846	11.84	-9.086
C	-5.827	11.677	-10.952
H	-4.837	9.974	-11.43
CA	-5.063	11.076	-13.243
O	-6.265	12.764	-11.327
N	-5.225	10.833	-11.802
HA	-4.511	12.012	-13.349
C	-6.414	11.231	-13.971
H	-7.135	9.522	-13.163
CA	-8.69	10.368	-14.419
O	-6.586	12.186	-14.734
N	-7.366	10.304	-13.767
HA	-8.527	10.635	-15.464
C	-9.6	11.474	-13.845
H	-8.718	11.332	-12.054
CA	-10.114	12.966	-11.893
O	-10.461	11.988	-14.566
N	-9.42	11.85	-12.569
HA	-11.167	12.926	-12.169
C	-9.653	14.369	-12.342
OXT	-8.604	14.512	-13.011
O	-10.381	15.343	-12.039